data_C360H288N216O144_2018-02-15_10:33:22
#******************************************
#
# CIF file created by Zeo++
# Zeo++ is an open source package to
# analyze microporous materials
#
#*******************************************

_cell_length_a		43.5014   
_cell_length_b		43.5013   
_cell_length_c		30.086   
_cell_angle_alpha		90   
_cell_angle_beta		90   
_cell_angle_gamma		120   

_symmetry_space_group_name_H-M		'P1'
_symmetry_Int_Tables_number		1
_symmetry_cell_setting		Monoclinic

loop_
_symmetry_equiv_pos_as_xyz
'+x,+y,+z'

loop_
_atom_site_label
_atom_site_type_symbol
_atom_site_fract_x
_atom_site_fract_y
_atom_site_fract_z
1	C	0.182793	0.314839	0.953018
2	N	0.146779	0.29737	0.955983
3	C	0.128787	0.315447	0.956614
4	N	0.147474	0.351475	0.954075
5	C	0.183361	0.36927	0.950874
6	N	0.200922	0.350769	0.950874
7	N	0.091369	0.296977	0.960383
8	H	0.082513	0.314892	0.958768
9	N	0.201517	0.406602	0.951761
10	H	0.223318	0.41578	0.931387
11	N	0.202077	0.296815	0.953955
12	H	0.190825	0.276522	0.931204
13	C	0.320745	0.190507	0.046615
14	N	0.356192	0.202437	0.045212
15	C	0.368898	0.179548	0.045771
16	N	0.345384	0.144156	0.048164
17	C	0.309807	0.131418	0.049439
18	N	0.297981	0.154966	0.049009
19	N	0.405883	0.192613	0.044333
20	H	0.410804	0.171877	0.046633
21	N	0.285826	0.09439	0.049725
22	H	0.260131	0.089479	0.050049
23	N	0.307093	0.213961	0.04502
24	H	0.327538	0.239699	0.042162
25	C	0.26473	0.228853	0.341986
26	C	0.264947	0.246775	0.302842
27	C	0.245713	0.26463	0.300143
28	C	0.225484	0.265437	0.003117
29	C	0.226694	0.249127	0.04382
30	H	0.246356	0.276541	0.270627
31	H	0.278123	0.245919	0.2751
32	C	0.2458	0.230427	0.046269
33	N	0.209452	0.250135	0.083371
34	N	0.246545	0.21262	0.085453
35	O	0.220898	0.281027	0.097949
36	O	0.261097	0.233603	0.117403
37	O	0.176224	0.234022	0.080506
38	O	0.216259	0.188328	0.096866
39	C	0.203193	0.282625	0.998591
40	H	0.21333	0.304619	0.022275
41	H	0.17596	0.263199	0.007953
42	C	0.281608	0.206263	0.341278
43	H	0.295182	0.208682	0.309683
44	H	0.259851	0.178817	0.343688
45	C	0.266358	0.036285	0.344236
46	C	0.251657	0.019464	0.30333
47	C	0.233788	0.48244	0.299395
48	C	0.229854	0.460539	0.002832
49	C	0.242939	0.477071	0.045006
50	H	0.224441	0.471889	0.268677
51	H	0.255226	0.034127	0.2752
52	C	0.261591	0.014802	0.048785
53	N	0.238894	0.457855	0.084774
54	N	0.275942	0.032168	0.089827
55	O	0.207063	0.438085	0.095832
56	O	0.252319	0.02503	0.118569
57	O	0.25522	0.44087	0.08461
58	O	0.299073	0.025825	0.105094
59	C	0.212741	0.421164	0.997424
60	H	0.189216	0.409139	0.018712
61	H	0.231265	0.412953	0.009504
62	C	0.29032	0.075645	0.344429
63	H	0.287288	0.087534	0.313787
64	H	0.317344	0.080003	0.344659
65	C	0.463029	0.229105	0.339314
66	C	0.480414	0.221252	0.305368
67	C	0.017394	0.236369	0.305492
68	C	0.038461	0.259918	0.006123
69	C	0.021249	0.267564	0.041266
70	H	0.028984	0.230328	0.279888
71	H	0.466319	0.204739	0.279728
72	C	0.483624	0.252338	0.040883
73	N	0.039489	0.289951	0.077706
74	N	0.465277	0.259496	0.074673
75	O	0.055211	0.278192	0.101203
76	O	0.468631	0.248773	0.112173
77	O	0.06023	0.321554	0.066482
78	O	0.474382	0.291788	0.076835
79	C	0.077787	0.275933	0.00206
80	H	0.083712	0.254268	0.001701
81	H	0.091898	0.292706	0.030398
82	C	0.423709	0.213604	0.337167
83	H	0.412339	0.196795	0.307794
84	H	0.418686	0.235778	0.333963
85	C	0.182793	0.314839	0.286352
86	N	0.146779	0.29737	0.289317
87	C	0.128787	0.315447	0.289947
88	N	0.147474	0.351475	0.287407
89	C	0.183361	0.36927	0.284207
90	N	0.200922	0.350769	0.284207
91	N	0.091369	0.296977	0.293718
92	H	0.082513	0.314892	0.292103
93	N	0.201517	0.406602	0.285093
94	H	0.223318	0.41578	0.264719
95	N	0.202077	0.296815	0.287288
96	H	0.190825	0.276522	0.264537
97	C	0.320745	0.190507	0.379947
98	N	0.356192	0.202437	0.378545
99	C	0.368898	0.179548	0.379103
100	N	0.345384	0.144156	0.381496
101	C	0.309807	0.131418	0.382773
102	N	0.297981	0.154966	0.382341
103	N	0.405883	0.192613	0.377667
104	H	0.410804	0.171877	0.379967
105	N	0.285826	0.09439	0.383059
106	H	0.260131	0.089479	0.383381
107	N	0.307093	0.213961	0.378355
108	H	0.327538	0.239699	0.375497
109	C	0.26473	0.228853	0.675317
110	C	0.264947	0.246775	0.636176
111	C	0.245713	0.26463	0.633477
112	C	0.225484	0.265437	0.336452
113	C	0.226694	0.249127	0.377155
114	H	0.246356	0.276541	0.603962
115	H	0.278123	0.245919	0.608432
116	C	0.2458	0.230427	0.379602
117	N	0.209452	0.250135	0.416705
118	N	0.246545	0.21262	0.418786
119	O	0.220898	0.281027	0.431284
120	O	0.261097	0.233603	0.450738
121	O	0.176224	0.234022	0.41384
122	O	0.216259	0.188328	0.4302
123	C	0.203193	0.282625	0.331924
124	H	0.21333	0.304619	0.355607
125	H	0.17596	0.263199	0.341285
126	C	0.281608	0.206263	0.674613
127	H	0.295182	0.208682	0.643017
128	H	0.259851	0.178817	0.677022
129	C	0.266358	0.036285	0.677571
130	C	0.251657	0.019464	0.636665
131	C	0.233788	0.48244	0.632729
132	C	0.229854	0.460539	0.336166
133	C	0.242939	0.477071	0.378339
134	H	0.224441	0.471889	0.602011
135	H	0.255226	0.034127	0.608532
136	C	0.261591	0.014802	0.382118
137	N	0.238894	0.457855	0.418108
138	N	0.275942	0.032168	0.42316
139	O	0.207063	0.438085	0.429166
140	O	0.252319	0.02503	0.451901
141	O	0.25522	0.44087	0.417945
142	O	0.299073	0.025825	0.438426
143	C	0.212741	0.421164	0.330758
144	H	0.189216	0.409139	0.352044
145	H	0.231265	0.412953	0.342837
146	C	0.29032	0.075645	0.67776
147	H	0.287288	0.087534	0.647121
148	H	0.317344	0.080003	0.677993
149	C	0.463029	0.229105	0.672648
150	C	0.480414	0.221252	0.638702
151	C	0.017394	0.236369	0.638825
152	C	0.038461	0.259918	0.339457
153	C	0.021249	0.267564	0.374599
154	H	0.028984	0.230328	0.613222
155	H	0.466319	0.204739	0.613062
156	C	0.483624	0.252338	0.374217
157	N	0.039489	0.289951	0.411038
158	N	0.465277	0.259496	0.408007
159	O	0.055211	0.278192	0.434538
160	O	0.468631	0.248773	0.445506
161	O	0.06023	0.321554	0.399817
162	O	0.474382	0.291788	0.410167
163	C	0.077787	0.275933	0.335392
164	H	0.083712	0.254268	0.335033
165	H	0.091898	0.292706	0.363731
166	C	0.423709	0.213604	0.670498
167	H	0.412339	0.196795	0.641129
168	H	0.418686	0.235778	0.667297
169	C	0.182793	0.314839	0.619683
170	N	0.146779	0.29737	0.622652
171	C	0.128787	0.315447	0.62328
172	N	0.147474	0.351475	0.62074
173	C	0.183361	0.36927	0.61754
174	N	0.200922	0.350769	0.61754
175	N	0.091369	0.296977	0.627052
176	H	0.082513	0.314892	0.625437
177	N	0.201517	0.406602	0.618427
178	H	0.223318	0.41578	0.598052
179	N	0.202077	0.296815	0.620621
180	H	0.190825	0.276522	0.597869
181	C	0.320745	0.190507	0.713282
182	N	0.356192	0.202437	0.711879
183	C	0.368898	0.179548	0.712438
184	N	0.345384	0.144156	0.714831
185	C	0.309807	0.131418	0.716107
186	N	0.297981	0.154966	0.715675
187	N	0.405883	0.192613	0.710998
188	H	0.410804	0.171877	0.713302
189	N	0.285826	0.09439	0.716393
190	H	0.260131	0.089479	0.716715
191	N	0.307093	0.213961	0.711686
192	H	0.327538	0.239699	0.708828
193	C	0.26473	0.228853	0.008652
194	C	0.264947	0.246775	0.969511
195	C	0.245713	0.26463	0.966812
196	C	0.225484	0.265437	0.669783
197	C	0.226694	0.249127	0.710486
198	H	0.246356	0.276541	0.937293
199	H	0.278123	0.245919	0.941767
200	C	0.2458	0.230427	0.712936
201	N	0.209452	0.250135	0.750036
202	N	0.246545	0.21262	0.75212
203	O	0.220898	0.281027	0.764615
204	O	0.261097	0.233603	0.784069
205	O	0.176224	0.234022	0.747171
206	O	0.216259	0.188328	0.763534
207	C	0.203193	0.282625	0.665256
208	H	0.21333	0.304619	0.688942
209	H	0.17596	0.263199	0.674619
210	C	0.281608	0.206263	0.007946
211	H	0.295182	0.208682	0.976351
212	H	0.259851	0.178817	0.010356
213	C	0.266358	0.036285	0.010904
214	C	0.251657	0.019464	0.969996
215	C	0.233788	0.48244	0.966064
216	C	0.229854	0.460539	0.669497
217	C	0.242939	0.477071	0.711673
218	H	0.224441	0.471889	0.935345
219	H	0.255226	0.034127	0.941866
220	C	0.261591	0.014802	0.715452
221	N	0.238894	0.457855	0.751439
222	N	0.275942	0.032168	0.756495
223	O	0.207063	0.438085	0.762497
224	O	0.252319	0.02503	0.785236
225	O	0.25522	0.44087	0.751276
226	O	0.299073	0.025825	0.771761
227	C	0.212741	0.421164	0.664093
228	H	0.189216	0.409139	0.685378
229	H	0.231265	0.412953	0.676172
230	C	0.29032	0.075645	0.011095
231	H	0.287288	0.087534	0.980453
232	H	0.317344	0.080003	0.011327
233	C	0.463029	0.229105	0.005981
234	C	0.480414	0.221252	0.972037
235	C	0.017394	0.236369	0.97216
236	C	0.038461	0.259918	0.672791
237	C	0.021249	0.267564	0.707934
238	H	0.028984	0.230328	0.946553
239	H	0.466319	0.204739	0.946394
240	C	0.483624	0.252338	0.707552
241	N	0.039489	0.289951	0.744373
242	N	0.465277	0.259496	0.741341
243	O	0.055211	0.278192	0.767869
244	O	0.468631	0.248773	0.778841
245	O	0.06023	0.321554	0.733148
246	O	0.474382	0.291788	0.743502
247	C	0.077787	0.275933	0.668726
248	H	0.083712	0.254268	0.668367
249	H	0.091898	0.292706	0.697065
250	C	0.423709	0.213604	0.003833
251	H	0.412339	0.196795	0.97446
252	H	0.418686	0.235778	0.00063
253	C	0.182794	0.814841	0.953018
254	N	0.146778	0.797369	0.955986
255	C	0.128787	0.815446	0.956614
256	N	0.147475	0.851474	0.954075
257	C	0.18336	0.869269	0.950874
258	N	0.200922	0.850768	0.950874
259	N	0.091369	0.796977	0.960387
260	H	0.082515	0.814894	0.958768
261	N	0.201518	0.906601	0.951761
262	H	0.223318	0.91578	0.931387
263	N	0.202079	0.796817	0.953955
264	H	0.190824	0.776522	0.931204
265	C	0.320745	0.690509	0.046615
266	N	0.356192	0.702437	0.045212
267	C	0.3689	0.679548	0.045771
268	N	0.345384	0.644155	0.048164
269	C	0.309809	0.631419	0.049439
270	N	0.297981	0.654966	0.049009
271	N	0.405883	0.692613	0.044333
272	H	0.410805	0.671877	0.046634
273	N	0.285827	0.59439	0.049726
274	H	0.260132	0.589479	0.05005
275	N	0.307094	0.713963	0.04502
276	H	0.327539	0.7397	0.042162
277	C	0.26473	0.728854	0.341986
278	C	0.264947	0.746774	0.302842
279	C	0.245713	0.76463	0.300143
280	C	0.225484	0.765437	0.003117
281	C	0.226694	0.749126	0.04382
282	H	0.246356	0.77654	0.270627
283	H	0.278123	0.745919	0.2751
284	C	0.245801	0.730428	0.046268
285	N	0.209453	0.750134	0.083371
286	N	0.246545	0.71262	0.085453
287	O	0.220898	0.781026	0.097949
288	O	0.261097	0.733603	0.117403
289	O	0.176225	0.734022	0.080506
290	O	0.216259	0.688327	0.096866
291	C	0.203194	0.782627	0.998591
292	H	0.21333	0.804619	0.022275
293	H	0.175961	0.763199	0.007953
294	C	0.281608	0.706262	0.341278
295	H	0.295182	0.708683	0.309683
296	H	0.259851	0.678816	0.343688
297	C	0.266358	0.536285	0.344236
298	C	0.251659	0.519464	0.30333
299	C	0.233788	0.982442	0.299396
300	C	0.229856	0.960541	0.002832
301	C	0.242938	0.97707	0.045006
302	H	0.22444	0.971889	0.268678
303	H	0.255227	0.534127	0.2752
304	C	0.261592	0.514803	0.048784
305	N	0.238895	0.957857	0.084774
306	N	0.275943	0.532168	0.089827
307	O	0.207064	0.938087	0.095832
308	O	0.252319	0.52503	0.118569
309	O	0.255221	0.940872	0.084611
310	O	0.299073	0.525827	0.105094
311	C	0.212741	0.921163	0.997424
312	H	0.189218	0.909141	0.018713
313	H	0.231265	0.912953	0.009505
314	C	0.29032	0.575647	0.344429
315	H	0.287287	0.587534	0.313787
316	H	0.317344	0.580003	0.344659
317	C	0.463028	0.729104	0.339314
318	C	0.480415	0.721252	0.305369
319	C	0.017396	0.736369	0.305493
320	C	0.038462	0.759919	0.006124
321	C	0.02125	0.767566	0.041266
322	H	0.028986	0.730327	0.27989
323	H	0.46632	0.704739	0.279729
324	C	0.483623	0.752338	0.040883
325	N	0.039489	0.789953	0.077705
326	N	0.465276	0.759496	0.074672
327	O	0.055211	0.778194	0.101203
328	O	0.46863	0.748775	0.112172
329	O	0.060231	0.821556	0.06648
330	O	0.474382	0.79179	0.076832
331	C	0.077788	0.775933	0.00206
332	H	0.083712	0.75427	0.001702
333	H	0.0919	0.792708	0.0304
334	C	0.42371	0.713604	0.337167
335	H	0.41234	0.696794	0.307794
336	H	0.418686	0.735777	0.333963
337	C	0.182794	0.814841	0.286352
338	N	0.146778	0.797369	0.289318
339	C	0.128787	0.815446	0.289947
340	N	0.147475	0.851474	0.287408
341	C	0.18336	0.869269	0.284207
342	N	0.200922	0.850768	0.284207
343	N	0.091369	0.796977	0.293718
344	H	0.082515	0.814894	0.292103
345	N	0.201518	0.906601	0.285094
346	H	0.223318	0.91578	0.26472
347	N	0.202079	0.796817	0.287289
348	H	0.190824	0.776522	0.264538
349	C	0.320745	0.690509	0.379947
350	N	0.356192	0.702437	0.378545
351	C	0.3689	0.679548	0.379103
352	N	0.345384	0.644155	0.381496
353	C	0.309809	0.631419	0.382773
354	N	0.297981	0.654966	0.382344
355	N	0.405883	0.692613	0.377667
356	H	0.410805	0.671877	0.379967
357	N	0.285827	0.59439	0.383059
358	H	0.260132	0.589479	0.383384
359	N	0.307094	0.713963	0.378352
360	H	0.327539	0.7397	0.375497
361	C	0.26473	0.728854	0.675317
362	C	0.264947	0.746774	0.636176
363	C	0.245713	0.76463	0.633477
364	C	0.225484	0.765437	0.336452
365	C	0.226694	0.749126	0.377155
366	H	0.246356	0.77654	0.603962
367	H	0.278123	0.745919	0.608432
368	C	0.245801	0.730428	0.379602
369	N	0.209453	0.750134	0.416705
370	N	0.246545	0.71262	0.418786
371	O	0.220898	0.781026	0.431284
372	O	0.261097	0.733603	0.450734
373	O	0.176225	0.734022	0.41384
374	O	0.216259	0.688327	0.4302
375	C	0.203194	0.782627	0.331924
376	H	0.21333	0.804619	0.355607
377	H	0.175961	0.763199	0.341285
378	C	0.281608	0.706262	0.674613
379	H	0.295182	0.708683	0.643017
380	H	0.259851	0.678816	0.677022
381	C	0.266358	0.536285	0.677571
382	C	0.251659	0.519464	0.636665
383	C	0.233788	0.982442	0.632729
384	C	0.229856	0.960541	0.336166
385	C	0.242938	0.97707	0.378339
386	H	0.22444	0.971889	0.602011
387	H	0.255227	0.534127	0.608532
388	C	0.261592	0.514803	0.382118
389	N	0.238895	0.957857	0.418108
390	N	0.275943	0.532168	0.42316
391	O	0.207064	0.938087	0.429166
392	O	0.252319	0.52503	0.451901
393	O	0.255221	0.940872	0.417945
394	O	0.299073	0.525827	0.438426
395	C	0.212741	0.921163	0.330758
396	H	0.189218	0.909141	0.352047
397	H	0.231265	0.912953	0.342837
398	C	0.29032	0.575647	0.67776
399	H	0.287287	0.587534	0.647121
400	H	0.317344	0.580003	0.677993
401	C	0.463028	0.729104	0.672648
402	C	0.480415	0.721252	0.638702
403	C	0.017396	0.736369	0.638825
404	C	0.038462	0.759919	0.339457
405	C	0.02125	0.767566	0.374599
406	H	0.028986	0.730327	0.613222
407	H	0.46632	0.704739	0.613062
408	C	0.483623	0.752338	0.374217
409	N	0.039489	0.789953	0.411038
410	N	0.465276	0.759496	0.408004
411	O	0.055211	0.778194	0.434538
412	O	0.46863	0.748775	0.445506
413	O	0.060231	0.821556	0.399814
414	O	0.474382	0.79179	0.410164
415	C	0.077788	0.775933	0.335395
416	H	0.083712	0.75427	0.335036
417	H	0.0919	0.792708	0.363734
418	C	0.42371	0.713604	0.670498
419	H	0.41234	0.696794	0.641129
420	H	0.418686	0.735777	0.667297
421	C	0.182794	0.814841	0.619687
422	N	0.146778	0.797369	0.622652
423	C	0.128787	0.815446	0.62328
424	N	0.147475	0.851474	0.62074
425	C	0.18336	0.869269	0.61754
426	N	0.200922	0.850768	0.61754
427	N	0.091369	0.796977	0.627052
428	H	0.082515	0.814894	0.625437
429	N	0.201518	0.906601	0.618427
430	H	0.223318	0.91578	0.598052
431	N	0.202079	0.796817	0.620621
432	H	0.190824	0.776522	0.597869
433	C	0.320745	0.690509	0.713282
434	N	0.356192	0.702437	0.711879
435	C	0.3689	0.679548	0.712438
436	N	0.345384	0.644155	0.714831
437	C	0.309809	0.631419	0.716107
438	N	0.297981	0.654966	0.715675
439	N	0.405883	0.692613	0.710998
440	H	0.410805	0.671877	0.713302
441	N	0.285827	0.59439	0.716393
442	H	0.260132	0.589479	0.716715
443	N	0.307094	0.713963	0.711686
444	H	0.327539	0.7397	0.708828
445	C	0.26473	0.728854	0.008652
446	C	0.264947	0.746774	0.969507
447	C	0.245713	0.76463	0.966808
448	C	0.225484	0.765437	0.669783
449	C	0.226694	0.749126	0.710486
450	H	0.246356	0.77654	0.937293
451	H	0.278123	0.745919	0.941767
452	C	0.245801	0.730428	0.712936
453	N	0.209453	0.750134	0.750036
454	N	0.246545	0.71262	0.75212
455	O	0.220898	0.781026	0.764615
456	O	0.261097	0.733603	0.784069
457	O	0.176225	0.734022	0.747171
458	O	0.216259	0.688327	0.763534
459	C	0.203194	0.782627	0.665256
460	H	0.21333	0.804619	0.688942
461	H	0.175961	0.763199	0.674619
462	C	0.281608	0.706262	0.007946
463	H	0.295182	0.708683	0.976348
464	H	0.259851	0.678816	0.010356
465	C	0.266358	0.536285	0.010904
466	C	0.251659	0.519464	0.969996
467	C	0.233788	0.982442	0.966064
468	C	0.229856	0.960541	0.669501
469	C	0.242938	0.97707	0.711673
470	H	0.22444	0.971889	0.935345
471	H	0.255227	0.534127	0.941866
472	C	0.261592	0.514803	0.715452
473	N	0.238895	0.957857	0.751439
474	N	0.275943	0.532168	0.756495
475	O	0.207064	0.938087	0.762501
476	O	0.252319	0.52503	0.785236
477	O	0.255221	0.940872	0.751276
478	O	0.299073	0.525827	0.771761
479	C	0.212741	0.921163	0.664093
480	H	0.189218	0.909141	0.685378
481	H	0.231265	0.912953	0.676172
482	C	0.29032	0.575647	0.011095
483	H	0.287287	0.587534	0.980453
484	H	0.317344	0.580003	0.011326
485	C	0.463028	0.729104	0.005981
486	C	0.480415	0.721252	0.972037
487	C	0.017396	0.736369	0.97216
488	C	0.038462	0.759919	0.672791
489	C	0.02125	0.767566	0.707934
490	H	0.028986	0.730327	0.946556
491	H	0.46632	0.704739	0.946397
492	C	0.483623	0.752338	0.707548
493	N	0.039489	0.789953	0.744373
494	N	0.465276	0.759496	0.741338
495	O	0.055211	0.778194	0.767869
496	O	0.46863	0.748775	0.778837
497	O	0.060231	0.821556	0.733148
498	O	0.474382	0.79179	0.743499
499	C	0.077788	0.775933	0.668726
500	H	0.083712	0.75427	0.668371
501	H	0.0919	0.792708	0.697068
502	C	0.42371	0.713604	0.003832
503	H	0.41234	0.696794	0.97446
504	H	0.418686	0.735777	0.000629
505	C	0.682793	0.314839	0.953018
506	N	0.646779	0.29737	0.955983
507	C	0.628786	0.315447	0.956614
508	N	0.647474	0.351475	0.954075
509	C	0.683359	0.36927	0.950874
510	N	0.700921	0.350769	0.950874
511	N	0.591369	0.296977	0.960383
512	H	0.582513	0.314892	0.958768
513	N	0.701517	0.406602	0.951761
514	H	0.723317	0.41578	0.931387
515	N	0.702077	0.296815	0.953955
516	H	0.690825	0.276522	0.931204
517	C	0.820743	0.190507	0.046615
518	N	0.85619	0.202437	0.045212
519	C	0.868898	0.179548	0.045771
520	N	0.845384	0.144156	0.048164
521	C	0.809807	0.131418	0.049439
522	N	0.797979	0.154966	0.049009
523	N	0.90588	0.192613	0.044333
524	H	0.910804	0.171877	0.046633
525	N	0.785826	0.09439	0.049725
526	H	0.76013	0.089479	0.050049
527	N	0.807091	0.213961	0.04502
528	H	0.827537	0.239699	0.042162
529	C	0.76473	0.228853	0.341986
530	C	0.764946	0.246775	0.302842
531	C	0.745714	0.26463	0.300143
532	C	0.725483	0.265437	0.003117
533	C	0.726693	0.249127	0.04382
534	H	0.746357	0.276541	0.270627
535	H	0.778122	0.245919	0.2751
536	C	0.7458	0.230427	0.046269
537	N	0.709451	0.250135	0.083371
538	N	0.746545	0.21262	0.085453
539	O	0.720897	0.281027	0.097949
540	O	0.761096	0.233603	0.117403
541	O	0.676223	0.234022	0.080506
542	O	0.716259	0.188328	0.096866
543	C	0.703193	0.282625	0.998591
544	H	0.713328	0.304619	0.022275
545	H	0.675959	0.263199	0.007953
546	C	0.781608	0.206263	0.341278
547	H	0.795181	0.208682	0.309683
548	H	0.759851	0.178817	0.343688
549	C	0.766358	0.036285	0.344236
550	C	0.751657	0.019464	0.30333
551	C	0.733788	0.48244	0.299395
552	C	0.729853	0.460539	0.002832
553	C	0.742937	0.477071	0.045006
554	H	0.724442	0.471889	0.268677
555	H	0.755226	0.034127	0.2752
556	C	0.761591	0.014802	0.048785
557	N	0.738893	0.457855	0.084774
558	N	0.775942	0.032168	0.089827
559	O	0.707064	0.438085	0.095832
560	O	0.752319	0.02503	0.118569
561	O	0.75522	0.44087	0.08461
562	O	0.799071	0.025825	0.105094
563	C	0.71274	0.421164	0.997424
564	H	0.689216	0.409139	0.018712
565	H	0.731264	0.412953	0.009504
566	C	0.790318	0.075645	0.344429
567	H	0.787288	0.087534	0.313787
568	H	0.817344	0.080003	0.344659
569	C	0.963029	0.229105	0.339314
570	C	0.980414	0.221252	0.305368
571	C	0.517395	0.236369	0.305492
572	C	0.538461	0.259918	0.006123
573	C	0.521248	0.267564	0.041266
574	H	0.528983	0.230328	0.279888
575	H	0.966319	0.204739	0.279728
576	C	0.983624	0.252338	0.040883
577	N	0.539489	0.289951	0.077706
578	N	0.965275	0.259496	0.074673
579	O	0.555211	0.278192	0.101203
580	O	0.968631	0.248773	0.112173
581	O	0.560229	0.321554	0.066482
582	O	0.974382	0.291788	0.076835
583	C	0.577787	0.275933	0.00206
584	H	0.583713	0.254268	0.001701
585	H	0.591897	0.292706	0.030398
586	C	0.923709	0.213604	0.337167
587	H	0.912339	0.196795	0.307794
588	H	0.918686	0.235778	0.333963
589	C	0.682793	0.314839	0.286352
590	N	0.646779	0.29737	0.289317
591	C	0.628786	0.315447	0.289947
592	N	0.647474	0.351475	0.287407
593	C	0.683359	0.36927	0.284207
594	N	0.700921	0.350769	0.284207
595	N	0.591369	0.296977	0.293718
596	H	0.582513	0.314892	0.292103
597	N	0.701517	0.406602	0.285093
598	H	0.723317	0.41578	0.264719
599	N	0.702077	0.296815	0.287288
600	H	0.690825	0.276522	0.264537
601	C	0.820743	0.190507	0.379947
602	N	0.85619	0.202437	0.378545
603	C	0.868898	0.179548	0.379103
604	N	0.845384	0.144156	0.381496
605	C	0.809807	0.131418	0.382773
606	N	0.797979	0.154966	0.382341
607	N	0.90588	0.192613	0.377667
608	H	0.910804	0.171877	0.379967
609	N	0.785826	0.09439	0.383059
610	H	0.76013	0.089479	0.383381
611	N	0.807091	0.213961	0.378355
612	H	0.827537	0.239699	0.375497
613	C	0.76473	0.228853	0.675317
614	C	0.764946	0.246775	0.636176
615	C	0.745714	0.26463	0.633477
616	C	0.725483	0.265437	0.336452
617	C	0.726693	0.249127	0.377155
618	H	0.746357	0.276541	0.603962
619	H	0.778122	0.245919	0.608432
620	C	0.7458	0.230427	0.379602
621	N	0.709451	0.250135	0.416705
622	N	0.746545	0.21262	0.418786
623	O	0.720897	0.281027	0.431284
624	O	0.761096	0.233603	0.450738
625	O	0.676223	0.234022	0.41384
626	O	0.716259	0.188328	0.4302
627	C	0.703193	0.282625	0.331924
628	H	0.713328	0.304619	0.355607
629	H	0.675959	0.263199	0.341285
630	C	0.781608	0.206263	0.674613
631	H	0.795181	0.208682	0.643017
632	H	0.759851	0.178817	0.677022
633	C	0.766358	0.036285	0.677571
634	C	0.751657	0.019464	0.636665
635	C	0.733788	0.48244	0.632729
636	C	0.729853	0.460539	0.336166
637	C	0.742937	0.477071	0.378339
638	H	0.724442	0.471889	0.602011
639	H	0.755226	0.034127	0.608532
640	C	0.761591	0.014802	0.382118
641	N	0.738893	0.457855	0.418108
642	N	0.775942	0.032168	0.42316
643	O	0.707064	0.438085	0.429166
644	O	0.752319	0.02503	0.451901
645	O	0.75522	0.44087	0.417945
646	O	0.799071	0.025825	0.438426
647	C	0.71274	0.421164	0.330758
648	H	0.689216	0.409139	0.352044
649	H	0.731264	0.412953	0.342837
650	C	0.790318	0.075645	0.67776
651	H	0.787288	0.087534	0.647121
652	H	0.817344	0.080003	0.677993
653	C	0.963029	0.229105	0.672648
654	C	0.980414	0.221252	0.638702
655	C	0.517395	0.236369	0.638825
656	C	0.538461	0.259918	0.339457
657	C	0.521248	0.267564	0.374599
658	H	0.528983	0.230328	0.613222
659	H	0.966319	0.204739	0.613062
660	C	0.983624	0.252338	0.374217
661	N	0.539489	0.289951	0.411038
662	N	0.965275	0.259496	0.408007
663	O	0.555211	0.278192	0.434538
664	O	0.968631	0.248773	0.445506
665	O	0.560229	0.321554	0.399817
666	O	0.974382	0.291788	0.410167
667	C	0.577787	0.275933	0.335392
668	H	0.583713	0.254268	0.335033
669	H	0.591897	0.292706	0.363731
670	C	0.923709	0.213604	0.670498
671	H	0.912339	0.196795	0.641129
672	H	0.918686	0.235778	0.667297
673	C	0.682793	0.314839	0.619683
674	N	0.646779	0.29737	0.622652
675	C	0.628786	0.315447	0.62328
676	N	0.647474	0.351475	0.62074
677	C	0.683359	0.36927	0.61754
678	N	0.700921	0.350769	0.61754
679	N	0.591369	0.296977	0.627052
680	H	0.582513	0.314892	0.625437
681	N	0.701517	0.406602	0.618427
682	H	0.723317	0.41578	0.598052
683	N	0.702077	0.296815	0.620621
684	H	0.690825	0.276522	0.597869
685	C	0.820743	0.190507	0.713282
686	N	0.85619	0.202437	0.711879
687	C	0.868898	0.179548	0.712438
688	N	0.845384	0.144156	0.714831
689	C	0.809807	0.131418	0.716107
690	N	0.797979	0.154966	0.715675
691	N	0.90588	0.192613	0.710998
692	H	0.910804	0.171877	0.713302
693	N	0.785826	0.09439	0.716393
694	H	0.76013	0.089479	0.716715
695	N	0.807091	0.213961	0.711686
696	H	0.827537	0.239699	0.708828
697	C	0.76473	0.228853	0.008652
698	C	0.764946	0.246775	0.969511
699	C	0.745714	0.26463	0.966812
700	C	0.725483	0.265437	0.669783
701	C	0.726693	0.249127	0.710486
702	H	0.746357	0.276541	0.937293
703	H	0.778122	0.245919	0.941767
704	C	0.7458	0.230427	0.712936
705	N	0.709451	0.250135	0.750036
706	N	0.746545	0.21262	0.75212
707	O	0.720897	0.281027	0.764615
708	O	0.761096	0.233603	0.784069
709	O	0.676223	0.234022	0.747171
710	O	0.716259	0.188328	0.763534
711	C	0.703193	0.282625	0.665256
712	H	0.713328	0.304619	0.688942
713	H	0.675959	0.263199	0.674619
714	C	0.781608	0.206263	0.007946
715	H	0.795181	0.208682	0.976351
716	H	0.759851	0.178817	0.010356
717	C	0.766358	0.036285	0.010904
718	C	0.751657	0.019464	0.969996
719	C	0.733788	0.48244	0.966064
720	C	0.729853	0.460539	0.669497
721	C	0.742937	0.477071	0.711673
722	H	0.724442	0.471889	0.935345
723	H	0.755226	0.034127	0.941866
724	C	0.761591	0.014802	0.715452
725	N	0.738893	0.457855	0.751439
726	N	0.775942	0.032168	0.756495
727	O	0.707064	0.438085	0.762497
728	O	0.752319	0.02503	0.785236
729	O	0.75522	0.44087	0.751276
730	O	0.799071	0.025825	0.771761
731	C	0.71274	0.421164	0.664093
732	H	0.689216	0.409139	0.685378
733	H	0.731264	0.412953	0.676172
734	C	0.790318	0.075645	0.011095
735	H	0.787288	0.087534	0.980453
736	H	0.817344	0.080003	0.011327
737	C	0.963029	0.229105	0.005981
738	C	0.980414	0.221252	0.972037
739	C	0.517395	0.236369	0.97216
740	C	0.538461	0.259918	0.672791
741	C	0.521248	0.267564	0.707934
742	H	0.528983	0.230328	0.946553
743	H	0.966319	0.204739	0.946394
744	C	0.983624	0.252338	0.707552
745	N	0.539489	0.289951	0.744373
746	N	0.965275	0.259496	0.741341
747	O	0.555211	0.278192	0.767869
748	O	0.968631	0.248773	0.778841
749	O	0.560229	0.321554	0.733148
750	O	0.974382	0.291788	0.743502
751	C	0.577787	0.275933	0.668726
752	H	0.583713	0.254268	0.668367
753	H	0.591897	0.292706	0.697065
754	C	0.923709	0.213604	0.003833
755	H	0.912339	0.196795	0.97446
756	H	0.918686	0.235778	0.00063
757	C	0.682793	0.814841	0.953018
758	N	0.646778	0.797369	0.955986
759	C	0.628786	0.815446	0.956614
760	N	0.647473	0.851474	0.954075
761	C	0.68336	0.869269	0.950874
762	N	0.700922	0.850768	0.950874
763	N	0.591369	0.796977	0.960387
764	H	0.582513	0.814894	0.958768
765	N	0.701518	0.906601	0.951761
766	H	0.723318	0.91578	0.931387
767	N	0.702079	0.796817	0.953955
768	H	0.690824	0.776522	0.931204
769	C	0.820745	0.690509	0.046615
770	N	0.856191	0.702437	0.045212
771	C	0.8689	0.679548	0.045771
772	N	0.845382	0.644155	0.048164
773	C	0.809808	0.631419	0.049439
774	N	0.797981	0.654966	0.049009
775	N	0.905882	0.692613	0.044333
776	H	0.910805	0.671877	0.046634
777	N	0.785828	0.59439	0.049726
778	H	0.760132	0.589479	0.05005
779	N	0.807093	0.713963	0.04502
780	H	0.827539	0.7397	0.042162
781	C	0.764729	0.728854	0.341986
782	C	0.764947	0.746774	0.302842
783	C	0.745713	0.76463	0.300143
784	C	0.725484	0.765437	0.003117
785	C	0.726694	0.749126	0.04382
786	H	0.746355	0.77654	0.270627
787	H	0.778124	0.745919	0.2751
788	C	0.745799	0.730428	0.046268
789	N	0.709452	0.750134	0.083371
790	N	0.746543	0.71262	0.085453
791	O	0.720898	0.781026	0.097949
792	O	0.761097	0.733603	0.117403
793	O	0.676224	0.734022	0.080506
794	O	0.716259	0.688327	0.096866
795	C	0.703193	0.782627	0.998591
796	H	0.713329	0.804619	0.022275
797	H	0.67596	0.763199	0.007953
798	C	0.781607	0.706262	0.341278
799	H	0.795183	0.708683	0.309683
800	H	0.75985	0.678816	0.343688
801	C	0.766356	0.536285	0.344236
802	C	0.751659	0.519464	0.30333
803	C	0.733788	0.982442	0.299396
804	C	0.729856	0.960541	0.002832
805	C	0.742938	0.97707	0.045006
806	H	0.72444	0.971889	0.268678
807	H	0.755227	0.534127	0.2752
808	C	0.761592	0.514803	0.048784
809	N	0.738895	0.957857	0.084774
810	N	0.775941	0.532168	0.089827
811	O	0.707064	0.938087	0.095832
812	O	0.752318	0.52503	0.118569
813	O	0.75522	0.940872	0.084611
814	O	0.799073	0.525827	0.105094
815	C	0.712741	0.921163	0.997424
816	H	0.689216	0.909141	0.018713
817	H	0.731265	0.912953	0.009505
818	C	0.79032	0.575647	0.344429
819	H	0.787287	0.587534	0.313787
820	H	0.817343	0.580003	0.344659
821	C	0.963027	0.729104	0.339314
822	C	0.980415	0.721252	0.305369
823	C	0.517395	0.736369	0.305493
824	C	0.538461	0.759919	0.006124
825	C	0.521249	0.767566	0.041266
826	H	0.528985	0.730327	0.27989
827	H	0.96632	0.704739	0.279729
828	C	0.983623	0.752338	0.040883
829	N	0.539488	0.789953	0.077705
830	N	0.965277	0.759496	0.074672
831	O	0.55521	0.778194	0.101203
832	O	0.968628	0.748775	0.112172
833	O	0.560229	0.821556	0.06648
834	O	0.974382	0.79179	0.076832
835	C	0.577787	0.775933	0.00206
836	H	0.583712	0.75427	0.001702
837	H	0.591898	0.792708	0.0304
838	C	0.92371	0.713604	0.337167
839	H	0.91234	0.696794	0.307794
840	H	0.918684	0.735777	0.333963
841	C	0.682793	0.814841	0.286352
842	N	0.646778	0.797369	0.289318
843	C	0.628786	0.815446	0.289947
844	N	0.647473	0.851474	0.287408
845	C	0.68336	0.869269	0.284207
846	N	0.700922	0.850768	0.284207
847	N	0.591369	0.796977	0.293718
848	H	0.582513	0.814894	0.292103
849	N	0.701518	0.906601	0.285094
850	H	0.723318	0.91578	0.26472
851	N	0.702079	0.796817	0.287289
852	H	0.690824	0.776522	0.264538
853	C	0.820745	0.690509	0.379947
854	N	0.856191	0.702437	0.378545
855	C	0.8689	0.679548	0.379103
856	N	0.845382	0.644155	0.381496
857	C	0.809808	0.631419	0.382773
858	N	0.797981	0.654966	0.382344
859	N	0.905882	0.692613	0.377667
860	H	0.910805	0.671877	0.379967
861	N	0.785828	0.59439	0.383059
862	H	0.760132	0.589479	0.383384
863	N	0.807093	0.713963	0.378352
864	H	0.827539	0.7397	0.375497
865	C	0.764729	0.728854	0.675317
866	C	0.764947	0.746774	0.636176
867	C	0.745713	0.76463	0.633477
868	C	0.725484	0.765437	0.336452
869	C	0.726694	0.749126	0.377155
870	H	0.746355	0.77654	0.603962
871	H	0.778124	0.745919	0.608432
872	C	0.745799	0.730428	0.379602
873	N	0.709452	0.750134	0.416705
874	N	0.746543	0.71262	0.418786
875	O	0.720898	0.781026	0.431284
876	O	0.761097	0.733603	0.450734
877	O	0.676224	0.734022	0.41384
878	O	0.716259	0.688327	0.4302
879	C	0.703193	0.782627	0.331924
880	H	0.713329	0.804619	0.355607
881	H	0.67596	0.763199	0.341285
882	C	0.781607	0.706262	0.674613
883	H	0.795183	0.708683	0.643017
884	H	0.75985	0.678816	0.677022
885	C	0.766356	0.536285	0.677571
886	C	0.751659	0.519464	0.636665
887	C	0.733788	0.982442	0.632729
888	C	0.729856	0.960541	0.336166
889	C	0.742938	0.97707	0.378339
890	H	0.72444	0.971889	0.602011
891	H	0.755227	0.534127	0.608532
892	C	0.761592	0.514803	0.382118
893	N	0.738895	0.957857	0.418108
894	N	0.775941	0.532168	0.42316
895	O	0.707064	0.938087	0.429166
896	O	0.752318	0.52503	0.451901
897	O	0.75522	0.940872	0.417945
898	O	0.799073	0.525827	0.438426
899	C	0.712741	0.921163	0.330758
900	H	0.689216	0.909141	0.352047
901	H	0.731265	0.912953	0.342837
902	C	0.79032	0.575647	0.67776
903	H	0.787287	0.587534	0.647121
904	H	0.817343	0.580003	0.677993
905	C	0.963027	0.729104	0.672648
906	C	0.980415	0.721252	0.638702
907	C	0.517395	0.736369	0.638825
908	C	0.538461	0.759919	0.339457
909	C	0.521249	0.767566	0.374599
910	H	0.528985	0.730327	0.613222
911	H	0.96632	0.704739	0.613062
912	C	0.983623	0.752338	0.374217
913	N	0.539488	0.789953	0.411038
914	N	0.965277	0.759496	0.408004
915	O	0.55521	0.778194	0.434538
916	O	0.968628	0.748775	0.445506
917	O	0.560229	0.821556	0.399814
918	O	0.974382	0.79179	0.410164
919	C	0.577787	0.775933	0.335395
920	H	0.583712	0.75427	0.335036
921	H	0.591898	0.792708	0.363734
922	C	0.92371	0.713604	0.670498
923	H	0.91234	0.696794	0.641129
924	H	0.918684	0.735777	0.667297
925	C	0.682793	0.814841	0.619687
926	N	0.646778	0.797369	0.622652
927	C	0.628786	0.815446	0.62328
928	N	0.647473	0.851474	0.62074
929	C	0.68336	0.869269	0.61754
930	N	0.700922	0.850768	0.61754
931	N	0.591369	0.796977	0.627052
932	H	0.582513	0.814894	0.625437
933	N	0.701518	0.906601	0.618427
934	H	0.723318	0.91578	0.598052
935	N	0.702079	0.796817	0.620621
936	H	0.690824	0.776522	0.597869
937	C	0.820745	0.690509	0.713282
938	N	0.856191	0.702437	0.711879
939	C	0.8689	0.679548	0.712438
940	N	0.845382	0.644155	0.714831
941	C	0.809808	0.631419	0.716107
942	N	0.797981	0.654966	0.715675
943	N	0.905882	0.692613	0.710998
944	H	0.910805	0.671877	0.713302
945	N	0.785828	0.59439	0.716393
946	H	0.760132	0.589479	0.716715
947	N	0.807093	0.713963	0.711686
948	H	0.827539	0.7397	0.708828
949	C	0.764729	0.728854	0.008652
950	C	0.764947	0.746774	0.969507
951	C	0.745713	0.76463	0.966808
952	C	0.725484	0.765437	0.669783
953	C	0.726694	0.749126	0.710486
954	H	0.746355	0.77654	0.937293
955	H	0.778124	0.745919	0.941767
956	C	0.745799	0.730428	0.712936
957	N	0.709452	0.750134	0.750036
958	N	0.746543	0.71262	0.75212
959	O	0.720898	0.781026	0.764615
960	O	0.761097	0.733603	0.784069
961	O	0.676224	0.734022	0.747171
962	O	0.716259	0.688327	0.763534
963	C	0.703193	0.782627	0.665256
964	H	0.713329	0.804619	0.688942
965	H	0.67596	0.763199	0.674619
966	C	0.781607	0.706262	0.007946
967	H	0.795183	0.708683	0.976348
968	H	0.75985	0.678816	0.010356
969	C	0.766356	0.536285	0.010904
970	C	0.751659	0.519464	0.969996
971	C	0.733788	0.982442	0.966064
972	C	0.729856	0.960541	0.669501
973	C	0.742938	0.97707	0.711673
974	H	0.72444	0.971889	0.935345
975	H	0.755227	0.534127	0.941866
976	C	0.761592	0.514803	0.715452
977	N	0.738895	0.957857	0.751439
978	N	0.775941	0.532168	0.756495
979	O	0.707064	0.938087	0.762501
980	O	0.752318	0.52503	0.785236
981	O	0.75522	0.940872	0.751276
982	O	0.799073	0.525827	0.771761
983	C	0.712741	0.921163	0.664093
984	H	0.689216	0.909141	0.685378
985	H	0.731265	0.912953	0.676172
986	C	0.79032	0.575647	0.011095
987	H	0.787287	0.587534	0.980453
988	H	0.817343	0.580003	0.011326
989	C	0.963027	0.729104	0.005981
990	C	0.980415	0.721252	0.972037
991	C	0.517395	0.736369	0.97216
992	C	0.538461	0.759919	0.672791
993	C	0.521249	0.767566	0.707934
994	H	0.528985	0.730327	0.946556
995	H	0.96632	0.704739	0.946397
996	C	0.983623	0.752338	0.707548
997	N	0.539488	0.789953	0.744373
998	N	0.965277	0.759496	0.741338
999	O	0.55521	0.778194	0.767869
1000	O	0.968628	0.748775	0.778837
1001	O	0.560229	0.821556	0.733148
1002	O	0.974382	0.79179	0.743499
1003	C	0.577787	0.775933	0.668726
1004	H	0.583712	0.75427	0.668371
1005	H	0.591898	0.792708	0.697068
1006	C	0.92371	0.713604	0.003832
1007	H	0.91234	0.696794	0.97446
1008	H	0.918684	0.735777	0.000629
