data_C504H504N144_2018-02-15_10:45:11
#******************************************
#
# CIF file created by Zeo++
# Zeo++ is an open source package to
# analyze microporous materials
#
#*******************************************

_cell_length_a		45.443   
_cell_length_b		45.443   
_cell_length_c		29.6878   
_cell_angle_alpha		90   
_cell_angle_beta		90   
_cell_angle_gamma		120   

_symmetry_space_group_name_H-M		'P1'
_symmetry_Int_Tables_number		1
_symmetry_cell_setting		Monoclinic

loop_
_symmetry_equiv_pos_as_xyz
'+x,+y,+z'

loop_
_atom_site_label
_atom_site_type_symbol
_atom_site_fract_x
_atom_site_fract_y
_atom_site_fract_z
1	N	0.105764	0.297041	0.006819
2	C	0.044357	0.279569	0.006358
3	C	0.02029	0.290369	0.015816
4	C	0.03129	0.24443	0.329524
5	C	0.031781	0.324217	0.037766
6	H	0.050386	0.328938	0.064135
7	H	0.011297	0.325764	0.054722
8	H	0.043143	0.344441	0.012703
9	C	0.053435	0.232872	0.307321
10	H	0.069454	0.251071	0.281683
11	H	0.039034	0.208868	0.289305
12	H	0.069346	0.229962	0.33239
13	C	0.079951	0.30392	0.006823
14	H	0.087423	0.329149	0.00831
15	N	0.105764	0.297041	0.340154
16	C	0.044357	0.279569	0.339692
17	C	0.02029	0.290369	0.349147
18	C	0.03129	0.24443	0.662856
19	C	0.031781	0.324217	0.371099
20	H	0.050386	0.328938	0.397467
21	H	0.011297	0.325764	0.388056
22	H	0.043143	0.344441	0.346035
23	C	0.053435	0.232872	0.640655
24	H	0.069454	0.251071	0.615015
25	H	0.039034	0.208868	0.622637
26	H	0.069346	0.229962	0.665722
27	C	0.079951	0.30392	0.340157
28	H	0.087423	0.329149	0.341643
29	N	0.105764	0.297041	0.673486
30	C	0.044357	0.279569	0.673025
31	C	0.02029	0.290369	0.68248
32	C	0.03129	0.24443	0.996192
33	C	0.031781	0.324217	0.704432
34	H	0.050386	0.328938	0.7308
35	H	0.011297	0.325764	0.721388
36	H	0.043143	0.344441	0.679368
37	C	0.053435	0.232872	0.973987
38	H	0.069454	0.251071	0.948351
39	H	0.039034	0.208868	0.95597
40	H	0.069346	0.229962	0.999055
41	C	0.079951	0.30392	0.67349
42	H	0.087423	0.329149	0.674975
43	N	0.105765	0.797041	0.006819
44	C	0.044356	0.779569	0.006358
45	C	0.020289	0.790366	0.015816
46	C	0.031289	0.74443	0.329524
47	C	0.031781	0.824217	0.037766
48	H	0.050387	0.828938	0.064135
49	H	0.011298	0.825764	0.054722
50	H	0.043143	0.844441	0.012703
51	C	0.053435	0.732871	0.307321
52	H	0.069452	0.75107	0.281683
53	H	0.039035	0.708869	0.289305
54	H	0.069344	0.729962	0.33239
55	C	0.079952	0.80392	0.006823
56	H	0.087423	0.829146	0.00831
57	N	0.105765	0.797041	0.340154
58	C	0.044356	0.779569	0.339692
59	C	0.020289	0.790366	0.349147
60	C	0.031289	0.74443	0.662856
61	C	0.031781	0.824217	0.371099
62	H	0.050387	0.828938	0.397467
63	H	0.011298	0.825764	0.388056
64	H	0.043143	0.844441	0.346035
65	C	0.053435	0.732871	0.640655
66	H	0.069452	0.75107	0.615015
67	H	0.039035	0.708869	0.622637
68	H	0.069344	0.729962	0.665722
69	C	0.079952	0.80392	0.340157
70	H	0.087423	0.829146	0.341643
71	N	0.105765	0.797041	0.673486
72	C	0.044356	0.779569	0.673025
73	C	0.020289	0.790366	0.68248
74	C	0.031289	0.74443	0.996192
75	C	0.031781	0.824217	0.704432
76	H	0.050387	0.828938	0.7308
77	H	0.011298	0.825764	0.721388
78	H	0.043143	0.844441	0.679368
79	C	0.053435	0.732871	0.973987
80	H	0.069452	0.75107	0.948351
81	H	0.039035	0.708869	0.95597
82	H	0.069344	0.729962	0.999055
83	C	0.079952	0.80392	0.67349
84	H	0.087423	0.829146	0.674975
85	C	0.139875	0.318304	0.0072
86	N	0.160351	0.304441	0.007161
87	C	0.188948	0.373276	0.007199
88	N	0.154609	0.352801	0.007159
89	C	0.18897	0.210229	0.037896
90	H	0.184279	0.224151	0.06424
91	H	0.187455	0.18823	0.054904
92	H	0.16871	0.20132	0.012882
93	H	0.183995	0.260901	0.008338
94	H	0.183752	0.007366	0.349225
95	C	0.18999	0.45972	0.307231
96	H	0.180411	0.474128	0.289176
97	H	0.171137	0.443803	0.332263
98	C	0.139875	0.318304	0.340534
99	N	0.160351	0.304441	0.340494
100	C	0.188948	0.373276	0.340531
101	N	0.154609	0.352801	0.340491
102	C	0.18897	0.210229	0.37123
103	H	0.184279	0.224151	0.397575
104	H	0.187455	0.18823	0.388238
105	H	0.16871	0.20132	0.346213
106	H	0.183995	0.260901	0.341669
107	H	0.183752	0.007366	0.682558
108	C	0.18999	0.45972	0.640564
109	H	0.180411	0.474128	0.622509
110	H	0.171137	0.443803	0.665594
111	C	0.139875	0.318304	0.673867
112	N	0.160351	0.304441	0.673827
113	C	0.188948	0.373276	0.673864
114	N	0.154609	0.352801	0.673827
115	C	0.18897	0.210229	0.704563
116	H	0.184279	0.224151	0.730907
117	H	0.187455	0.18823	0.72157
118	H	0.16871	0.20132	0.679546
119	H	0.183995	0.260901	0.675006
120	H	0.183752	0.007366	0.015893
121	C	0.18999	0.45972	0.973896
122	H	0.180411	0.474128	0.955842
123	H	0.171137	0.443803	0.998927
124	C	0.139874	0.818304	0.0072
125	N	0.16035	0.80444	0.007161
126	C	0.188947	0.873276	0.007199
127	N	0.154609	0.8528	0.007159
128	C	0.18897	0.710228	0.037896
129	H	0.184279	0.72415	0.06424
130	H	0.187454	0.688228	0.054904
131	H	0.16871	0.70132	0.012882
132	H	0.183996	0.760901	0.008338
133	H	0.183753	0.507366	0.349225
134	C	0.189989	0.95972	0.307231
135	H	0.180411	0.974127	0.289176
136	H	0.171136	0.943803	0.332263
137	C	0.139874	0.818304	0.340534
138	N	0.16035	0.80444	0.340494
139	C	0.188947	0.873276	0.340531
140	N	0.154609	0.8528	0.340491
141	C	0.18897	0.710228	0.37123
142	H	0.184279	0.72415	0.397575
143	H	0.187454	0.688228	0.388238
144	H	0.16871	0.70132	0.346213
145	H	0.183996	0.760901	0.341669
146	H	0.183753	0.507366	0.682558
147	C	0.189989	0.95972	0.640564
148	H	0.180411	0.974127	0.622509
149	H	0.171136	0.943803	0.665594
150	C	0.139874	0.818304	0.673867
151	N	0.16035	0.80444	0.673827
152	C	0.188947	0.873276	0.673864
153	N	0.154609	0.8528	0.673827
154	C	0.18897	0.710228	0.704563
155	H	0.184279	0.72415	0.730907
156	H	0.187454	0.688228	0.72157
157	H	0.16871	0.70132	0.679546
158	H	0.183996	0.760901	0.675006
159	H	0.183753	0.507366	0.015893
160	C	0.189989	0.95972	0.973896
161	H	0.180411	0.974127	0.955842
162	H	0.171136	0.943803	0.998927
163	C	0.194847	0.324202	0.0072
164	N	0.208712	0.358543	0.007156
165	N	0.201796	0.407386	0.006818
166	N	0.21611	0.311355	0.006811
167	C	0.233571	0.267413	0.006345
168	C	0.222786	0.23256	0.015846
169	C	0.245195	0.219502	0.007973
170	C	0.230314	0.18209	0.000288
171	H	0.203037	0.168687	0.99381
172	H	0.234975	0.170382	0.029446
173	H	0.241416	0.177726	0.970228
174	C	0.209223	0.27866	0.006829
175	C	0.245734	0.468791	0.006358
176	C	0.235142	0.017184	0.335888
177	C	0.223666	0.48186	0.32951
178	C	0.209276	0.028252	0.342097
179	H	0.215948	0.045158	0.371119
180	H	0.208154	0.04145	0.312017
181	H	0.1922	0.443707	0.281613
182	C	0.23449	0.433197	0.006828
183	C	0.194847	0.324202	0.340531
184	N	0.208712	0.358543	0.340487
185	N	0.201796	0.407386	0.34015
186	N	0.21611	0.311355	0.340144
187	C	0.233571	0.267413	0.339679
188	C	0.222786	0.23256	0.349178
189	C	0.245195	0.219502	0.341306
190	C	0.230314	0.18209	0.333623
191	H	0.203037	0.168687	0.327143
192	H	0.234975	0.170382	0.362779
193	H	0.241416	0.177726	0.303564
194	C	0.209223	0.27866	0.34016
195	C	0.245734	0.468791	0.339692
196	C	0.235142	0.017184	0.669222
197	C	0.223666	0.48186	0.662842
198	C	0.209276	0.028252	0.67543
199	H	0.215948	0.045158	0.704452
200	H	0.208154	0.04145	0.64535
201	H	0.1922	0.443707	0.614947
202	C	0.23449	0.433197	0.34016
203	C	0.194847	0.324202	0.673864
204	N	0.208712	0.358543	0.673823
205	N	0.201796	0.407386	0.673483
206	N	0.21611	0.311355	0.673476
207	C	0.233571	0.267413	0.673011
208	C	0.222786	0.23256	0.68251
209	C	0.245195	0.219502	0.674638
210	C	0.230314	0.18209	0.666955
211	H	0.203037	0.168687	0.660478
212	H	0.234975	0.170382	0.696112
213	H	0.241416	0.177726	0.636896
214	C	0.209223	0.27866	0.673493
215	C	0.245734	0.468791	0.673025
216	C	0.235142	0.017184	0.002555
217	C	0.223666	0.48186	0.996175
218	C	0.209276	0.028252	0.008764
219	H	0.215948	0.045158	0.037787
220	H	0.208154	0.04145	0.978683
221	H	0.1922	0.443707	0.94828
222	C	0.23449	0.433197	0.673493
223	C	0.194848	0.824202	0.0072
224	N	0.20871	0.858541	0.007156
225	N	0.201797	0.907386	0.006818
226	N	0.216109	0.811352	0.006811
227	C	0.233571	0.767413	0.006345
228	C	0.222786	0.732561	0.015846
229	C	0.245194	0.7195	0.007973
230	C	0.230313	0.682089	0.000288
231	H	0.203037	0.668686	0.99381
232	H	0.234975	0.670383	0.029446
233	H	0.241416	0.677727	0.970228
234	C	0.209223	0.77866	0.006829
235	C	0.245734	0.968791	0.006358
236	C	0.235142	0.517185	0.335888
237	C	0.223665	0.98186	0.32951
238	C	0.209276	0.528251	0.342097
239	H	0.215948	0.545158	0.371119
240	H	0.208153	0.541448	0.312017
241	H	0.1922	0.943707	0.281613
242	C	0.23449	0.933197	0.006828
243	C	0.194848	0.824202	0.340531
244	N	0.20871	0.858541	0.340487
245	N	0.201797	0.907386	0.34015
246	N	0.216109	0.811352	0.340144
247	C	0.233571	0.767413	0.339679
248	C	0.222786	0.732561	0.349178
249	C	0.245194	0.7195	0.341306
250	C	0.230313	0.682089	0.333624
251	H	0.203037	0.668686	0.327143
252	H	0.234975	0.670383	0.362779
253	H	0.241416	0.677727	0.303564
254	C	0.209223	0.77866	0.34016
255	C	0.245734	0.968791	0.339692
256	C	0.235142	0.517185	0.669222
257	C	0.223665	0.98186	0.662842
258	C	0.209276	0.528251	0.67543
259	H	0.215948	0.545158	0.704452
260	H	0.208153	0.541448	0.64535
261	H	0.1922	0.943707	0.614947
262	C	0.23449	0.933197	0.34016
263	C	0.194848	0.824202	0.673864
264	N	0.20871	0.858541	0.673823
265	N	0.201797	0.907386	0.673483
266	N	0.216109	0.811352	0.673476
267	C	0.233571	0.767413	0.673011
268	C	0.222786	0.732561	0.68251
269	C	0.245194	0.7195	0.674638
270	C	0.230313	0.682089	0.666955
271	H	0.203037	0.668686	0.660478
272	H	0.234975	0.670383	0.696112
273	H	0.241416	0.677727	0.636896
274	C	0.209223	0.77866	0.673497
275	C	0.245734	0.968791	0.673025
276	C	0.235142	0.517185	0.002555
277	C	0.223665	0.98186	0.996175
278	C	0.209276	0.528251	0.008764
279	H	0.215948	0.545158	0.037787
280	H	0.208153	0.541448	0.978683
281	H	0.1922	0.943707	0.94828
282	C	0.23449	0.933197	0.673493
283	C	0.375867	0.192454	0.006915
284	N	0.355162	0.206057	0.006898
285	C	0.320697	0.186049	0.006908
286	N	0.307092	0.151741	0.006909
287	C	0.327101	0.137281	0.006925
288	N	0.361409	0.157987	0.006917
289	N	0.409933	0.213955	0.006668
290	N	0.314538	0.103216	0.006682
291	N	0.299194	0.198612	0.006653
292	C	0.281092	0.242321	0.338126
293	C	0.292551	0.278004	0.335817
294	C	0.268698	0.289477	0.329443
295	C	0.32949	0.303874	0.341959
296	H	0.339749	0.297232	0.370981
297	H	0.334138	0.329406	0.349046
298	H	0.343784	0.304964	0.311864
299	C	0.280224	0.323137	0.307125
300	H	0.261975	0.320914	0.281539
301	H	0.304189	0.332691	0.289024
302	H	0.283196	0.342014	0.332141
303	C	0.305464	0.231037	0.337129
304	H	0.330531	0.248596	0.333159
305	C	0.280594	0.49286	0.01584
306	C	0.293646	0.028327	0.007971
307	C	0.270826	0.041408	0.338163
308	C	0.331048	0.050852	0.00021
309	H	0.344441	0.036975	0.993672
310	H	0.342795	0.067223	0.029353
311	H	0.335379	0.066317	0.970158
312	C	0.302951	0.481372	0.0378
313	H	0.289059	0.462757	0.064157
314	H	0.324973	0.501852	0.054773
315	H	0.311826	0.470019	0.012741
316	H	0.252247	0.425727	0.008315
317	C	0.282111	0.077063	0.337173
318	H	0.264551	0.084571	0.333206
319	C	0.484824	0.267952	0.007946
320	C	0.471742	0.232052	0.33817
321	C	0.495964	0.220589	0.335929
322	C	0.462299	0.282827	0.000167
323	H	0.476177	0.310094	0.993618
324	H	0.445927	0.27821	0.029308
325	H	0.446834	0.271685	0.970117
326	C	0.484894	0.18366	0.342192
327	H	0.46798	0.173443	0.371207
328	H	0.505777	0.179026	0.34936
329	H	0.471705	0.16932	0.312117
330	C	0.436085	0.207681	0.337173
331	H	0.428579	0.182612	0.33323
332	C	0.375867	0.192454	0.340248
333	N	0.355162	0.206057	0.340231
334	C	0.320697	0.186049	0.340241
335	N	0.307092	0.151741	0.340241
336	C	0.327101	0.137281	0.340258
337	N	0.361409	0.157987	0.340248
338	N	0.409933	0.213955	0.340002
339	N	0.314538	0.103216	0.340016
340	N	0.299194	0.198612	0.339985
341	C	0.281092	0.242321	0.671459
342	C	0.292551	0.278004	0.669151
343	C	0.268698	0.289477	0.662775
344	C	0.32949	0.303874	0.675292
345	H	0.339749	0.297232	0.704314
346	H	0.334138	0.329406	0.682379
347	H	0.343784	0.304964	0.645195
348	C	0.280224	0.323137	0.640456
349	H	0.261975	0.320914	0.614873
350	H	0.304189	0.332691	0.622358
351	H	0.283196	0.342014	0.665473
352	C	0.305464	0.231037	0.670462
353	H	0.330531	0.248596	0.66649
354	C	0.280594	0.49286	0.349171
355	C	0.293646	0.028327	0.341302
356	C	0.270826	0.041408	0.671496
357	C	0.331048	0.050852	0.333544
358	H	0.344441	0.036975	0.327008
359	H	0.342795	0.067223	0.362685
360	H	0.335379	0.066317	0.303491
361	C	0.302951	0.481372	0.371133
362	H	0.289059	0.462757	0.39749
363	H	0.324973	0.501852	0.388106
364	H	0.311826	0.470019	0.346075
365	H	0.252247	0.425727	0.341649
366	C	0.282111	0.077063	0.670505
367	H	0.264551	0.084571	0.666537
368	C	0.484824	0.267952	0.341279
369	C	0.471742	0.232052	0.671502
370	C	0.495964	0.220589	0.669262
371	C	0.462299	0.282827	0.333501
372	H	0.476177	0.310094	0.326954
373	H	0.445927	0.27821	0.362641
374	H	0.446834	0.271685	0.30345
375	C	0.484894	0.18366	0.675524
376	H	0.46798	0.173443	0.70454
377	H	0.505777	0.179026	0.682692
378	H	0.471705	0.16932	0.645451
379	C	0.436085	0.207681	0.670505
380	H	0.428579	0.182612	0.666561
381	C	0.375867	0.192454	0.673581
382	N	0.355162	0.206057	0.673564
383	C	0.320697	0.186049	0.673574
384	N	0.307092	0.151741	0.673574
385	C	0.327101	0.137281	0.673591
386	N	0.361409	0.157987	0.673584
387	N	0.409933	0.213955	0.673335
388	N	0.314538	0.103216	0.673348
389	N	0.299194	0.198612	0.673318
390	C	0.281092	0.242321	0.004791
391	C	0.292551	0.278004	0.002484
392	C	0.268698	0.289477	0.996108
393	C	0.32949	0.303874	0.008625
394	H	0.339749	0.297232	0.037649
395	H	0.334138	0.329406	0.015715
396	H	0.343784	0.304964	0.978531
397	C	0.280224	0.323137	0.973789
398	H	0.261975	0.320914	0.948206
399	H	0.304189	0.332691	0.95569
400	H	0.283196	0.342014	0.998806
401	C	0.305464	0.231037	0.003794
402	H	0.330531	0.248596	0.999823
403	C	0.280594	0.49286	0.682504
404	C	0.293646	0.028327	0.674635
405	C	0.270826	0.041408	0.004828
406	C	0.331048	0.050852	0.666878
407	H	0.344441	0.036975	0.66034
408	H	0.342795	0.067223	0.696018
409	H	0.335379	0.066317	0.636825
410	C	0.302951	0.481372	0.704466
411	H	0.289059	0.462757	0.730823
412	H	0.324973	0.501852	0.721439
413	H	0.311826	0.470019	0.679408
414	H	0.252247	0.425727	0.674982
415	C	0.282111	0.077063	0.003838
416	H	0.264551	0.084571	0.99987
417	C	0.484824	0.267952	0.674611
418	C	0.471742	0.232052	0.004835
419	C	0.495964	0.220589	0.002595
420	C	0.462299	0.282827	0.666834
421	H	0.476177	0.310094	0.660286
422	H	0.445927	0.27821	0.695974
423	H	0.446834	0.271685	0.636784
424	C	0.484894	0.18366	0.008857
425	H	0.46798	0.173443	0.037875
426	H	0.505777	0.179026	0.016026
427	H	0.471705	0.16932	0.978784
428	C	0.436085	0.207681	0.003838
429	H	0.428579	0.182612	0.999894
430	C	0.375868	0.692454	0.006915
431	N	0.355162	0.706056	0.006898
432	C	0.320695	0.686048	0.006908
433	N	0.307092	0.65174	0.006909
434	C	0.3271	0.637282	0.006925
435	N	0.361408	0.657986	0.006917
436	N	0.409932	0.713953	0.006668
437	N	0.314536	0.603215	0.006682
438	N	0.299193	0.698611	0.006653
439	C	0.281093	0.742321	0.338126
440	C	0.292551	0.778004	0.335817
441	C	0.268698	0.789477	0.329443
442	C	0.32949	0.803874	0.341959
443	H	0.339749	0.797232	0.370981
444	H	0.334138	0.829406	0.349046
445	H	0.343784	0.804964	0.311864
446	C	0.280224	0.823137	0.307125
447	H	0.261975	0.820914	0.281539
448	H	0.304189	0.832691	0.289024
449	H	0.283195	0.842011	0.332141
450	C	0.305464	0.731036	0.337129
451	H	0.33053	0.748595	0.333159
452	C	0.280594	0.99286	0.01584
453	C	0.293645	0.528327	0.007971
454	C	0.270827	0.541408	0.338163
455	C	0.331049	0.550853	0.00021
456	H	0.34444	0.536974	0.993672
457	H	0.342793	0.567222	0.029353
458	H	0.335378	0.566317	0.970158
459	C	0.302951	0.981372	0.0378
460	H	0.28906	0.962756	0.064157
461	H	0.324972	0.001852	0.054773
462	H	0.311826	0.970019	0.012741
463	H	0.252247	0.925727	0.008315
464	C	0.282111	0.577063	0.337173
465	H	0.26455	0.584569	0.333206
466	C	0.484824	0.767952	0.007946
467	C	0.471741	0.73205	0.33817
468	C	0.495965	0.720588	0.335929
469	C	0.462299	0.782827	0.000167
470	H	0.476177	0.810094	0.993618
471	H	0.445927	0.77821	0.029308
472	H	0.446835	0.771685	0.970117
473	C	0.484895	0.68366	0.342192
474	H	0.467979	0.673442	0.371207
475	H	0.505777	0.679025	0.34936
476	H	0.471706	0.669321	0.312117
477	C	0.436085	0.70768	0.337173
478	H	0.428578	0.68261	0.33323
479	C	0.375868	0.692454	0.340248
480	N	0.355162	0.706056	0.340231
481	C	0.320695	0.686048	0.340241
482	N	0.307092	0.65174	0.340241
483	C	0.3271	0.637282	0.340258
484	N	0.361408	0.657986	0.340248
485	N	0.409932	0.713953	0.340002
486	N	0.314536	0.603215	0.340016
487	N	0.299193	0.698611	0.339985
488	C	0.281093	0.742321	0.671459
489	C	0.292551	0.778004	0.669151
490	C	0.268698	0.789477	0.662775
491	C	0.32949	0.803874	0.675292
492	H	0.339749	0.797232	0.704314
493	H	0.334138	0.829406	0.682379
494	H	0.343784	0.804964	0.645195
495	C	0.280224	0.823137	0.640456
496	H	0.261975	0.820914	0.614873
497	H	0.304189	0.832691	0.622358
498	H	0.283195	0.842011	0.665473
499	C	0.305464	0.731036	0.670462
500	H	0.33053	0.748595	0.66649
501	C	0.280594	0.99286	0.349171
502	C	0.293645	0.528327	0.341302
503	C	0.270827	0.541408	0.671496
504	C	0.331049	0.550853	0.333544
505	H	0.34444	0.536974	0.327008
506	H	0.342793	0.567222	0.362685
507	H	0.335378	0.566317	0.303491
508	C	0.302951	0.981372	0.371133
509	H	0.28906	0.962756	0.39749
510	H	0.324972	0.001852	0.388106
511	H	0.311826	0.970019	0.346075
512	H	0.252247	0.925727	0.341649
513	C	0.282111	0.577063	0.670505
514	H	0.26455	0.584569	0.666537
515	C	0.484824	0.767952	0.341279
516	C	0.471741	0.73205	0.671502
517	C	0.495965	0.720588	0.669262
518	C	0.462299	0.782827	0.333501
519	H	0.476177	0.810094	0.326954
520	H	0.445927	0.77821	0.362641
521	H	0.446835	0.771685	0.30345
522	C	0.484895	0.68366	0.675524
523	H	0.467979	0.673442	0.70454
524	H	0.505777	0.679025	0.682692
525	H	0.471706	0.669321	0.645451
526	C	0.436085	0.70768	0.670505
527	H	0.428578	0.68261	0.666561
528	C	0.375868	0.692454	0.673581
529	N	0.355162	0.706056	0.673564
530	C	0.320695	0.686048	0.673574
531	N	0.307092	0.65174	0.673574
532	C	0.3271	0.637282	0.673591
533	N	0.361408	0.657986	0.673584
534	N	0.409932	0.713953	0.673335
535	N	0.314536	0.603215	0.673348
536	N	0.299193	0.698611	0.673318
537	C	0.281093	0.742321	0.004791
538	C	0.292551	0.778004	0.002484
539	C	0.268698	0.789477	0.996108
540	C	0.32949	0.803874	0.008625
541	H	0.339749	0.797232	0.037649
542	H	0.334138	0.829406	0.015715
543	H	0.343784	0.804964	0.978531
544	C	0.280224	0.823137	0.973789
545	H	0.261975	0.820914	0.948206
546	H	0.304189	0.832691	0.95569
547	H	0.283195	0.842011	0.998806
548	C	0.305464	0.731036	0.003794
549	H	0.33053	0.748595	0.999823
550	C	0.280594	0.99286	0.682504
551	C	0.293645	0.528327	0.674635
552	C	0.270827	0.541408	0.004828
553	C	0.331049	0.550853	0.666878
554	H	0.34444	0.536974	0.66034
555	H	0.342793	0.567222	0.696018
556	H	0.335378	0.566317	0.636825
557	C	0.302951	0.981372	0.704466
558	H	0.28906	0.962756	0.730823
559	H	0.324972	0.001852	0.721439
560	H	0.311826	0.970019	0.679408
561	H	0.252247	0.925727	0.674982
562	C	0.282111	0.577063	0.003838
563	H	0.26455	0.584569	0.99987
564	C	0.484824	0.767952	0.674611
565	C	0.471741	0.73205	0.004835
566	C	0.495965	0.720588	0.002595
567	C	0.462299	0.782827	0.666834
568	H	0.476177	0.810094	0.660286
569	H	0.445927	0.77821	0.695974
570	H	0.446835	0.771685	0.636784
571	C	0.484895	0.68366	0.008857
572	H	0.467979	0.673442	0.037875
573	H	0.505777	0.679025	0.016026
574	H	0.471706	0.669321	0.978784
575	C	0.436085	0.70768	0.003838
576	H	0.428578	0.68261	0.999894
577	C	0.639875	0.318304	0.0072
578	N	0.660351	0.304441	0.007161
579	C	0.694847	0.324202	0.0072
580	N	0.708711	0.358543	0.007156
581	C	0.688949	0.373276	0.007199
582	N	0.654608	0.352801	0.007159
583	N	0.605764	0.297041	0.006819
584	N	0.701796	0.407386	0.006818
585	N	0.716109	0.311355	0.006811
586	C	0.875867	0.192454	0.006915
587	N	0.855162	0.206057	0.006898
588	C	0.820694	0.186049	0.006908
589	N	0.807092	0.151741	0.006909
590	C	0.827101	0.137281	0.006925
591	N	0.861409	0.157987	0.006917
592	N	0.909933	0.213955	0.006668
593	N	0.814535	0.103216	0.006682
594	N	0.799194	0.198612	0.006653
595	C	0.73357	0.267413	0.006345
596	C	0.722785	0.23256	0.015846
597	C	0.745195	0.219502	0.007973
598	C	0.781093	0.242321	0.338126
599	C	0.79255	0.278004	0.335817
600	C	0.768698	0.289477	0.329443
601	C	0.730314	0.18209	0.000288
602	H	0.703037	0.168687	0.99381
603	H	0.734974	0.170382	0.029446
604	H	0.741415	0.177726	0.970228
605	C	0.688971	0.210229	0.037896
606	H	0.684278	0.224151	0.06424
607	H	0.687454	0.18823	0.054904
608	H	0.66871	0.20132	0.012882
609	C	0.829489	0.303874	0.341959
610	H	0.83975	0.297232	0.370981
611	H	0.834137	0.329406	0.349046
612	H	0.843783	0.304964	0.311864
613	C	0.780225	0.323137	0.307125
614	H	0.761975	0.320914	0.281539
615	H	0.804189	0.332691	0.289024
616	H	0.783196	0.342014	0.332141
617	C	0.709222	0.27866	0.006829
618	H	0.683994	0.260901	0.008338
619	C	0.805464	0.231037	0.337129
620	H	0.83053	0.248596	0.333159
621	C	0.745733	0.468791	0.006358
622	C	0.780594	0.49286	0.01584
623	C	0.793646	0.028327	0.007971
624	C	0.770826	0.041408	0.338163
625	C	0.735142	0.017184	0.335888
626	C	0.723664	0.48186	0.32951
627	C	0.831048	0.050852	0.00021
628	H	0.844441	0.036975	0.993672
629	H	0.842795	0.067223	0.029353
630	H	0.835379	0.066317	0.970158
631	C	0.802951	0.481372	0.0378
632	H	0.789059	0.462757	0.064157
633	H	0.824973	0.501852	0.054773
634	H	0.811826	0.470019	0.012741
635	C	0.709276	0.028252	0.342097
636	H	0.715947	0.045158	0.371119
637	H	0.683752	0.007366	0.349225
638	H	0.708153	0.04145	0.312017
639	C	0.68999	0.45972	0.307231
640	H	0.692201	0.443707	0.281613
641	H	0.68041	0.474128	0.289176
642	H	0.671137	0.443803	0.332263
643	C	0.734489	0.433197	0.006828
644	H	0.752247	0.425727	0.008315
645	C	0.782111	0.077063	0.337173
646	H	0.764551	0.084571	0.333206
647	C	0.544355	0.279569	0.006358
648	C	0.520289	0.290369	0.015816
649	C	0.984824	0.267952	0.007946
650	C	0.971742	0.232052	0.33817
651	C	0.995964	0.220589	0.335929
652	C	0.53129	0.24443	0.329524
653	C	0.962299	0.282827	0.000167
654	H	0.976177	0.310094	0.993618
655	H	0.945927	0.27821	0.029308
656	H	0.946834	0.271685	0.970117
657	C	0.53178	0.324217	0.037766
658	H	0.550386	0.328938	0.064135
659	H	0.511297	0.325764	0.054722
660	H	0.543142	0.344441	0.012703
661	C	0.984894	0.18366	0.342192
662	H	0.96798	0.173443	0.371207
663	H	0.005777	0.179026	0.34936
664	H	0.971705	0.16932	0.312117
665	C	0.553434	0.232872	0.307321
666	H	0.569454	0.251071	0.281683
667	H	0.539034	0.208868	0.289305
668	H	0.569346	0.229962	0.33239
669	C	0.579951	0.30392	0.006823
670	H	0.587423	0.329149	0.00831
671	C	0.936085	0.207681	0.337173
672	H	0.928579	0.182612	0.33323
673	C	0.639875	0.318304	0.340534
674	N	0.660351	0.304441	0.340494
675	C	0.694847	0.324202	0.340531
676	N	0.708711	0.358543	0.340487
677	C	0.688949	0.373276	0.340531
678	N	0.654608	0.352801	0.340491
679	N	0.605764	0.297041	0.340154
680	N	0.701796	0.407386	0.34015
681	N	0.716109	0.311355	0.340144
682	C	0.875867	0.192454	0.340248
683	N	0.855162	0.206057	0.340231
684	C	0.820694	0.186049	0.340241
685	N	0.807092	0.151741	0.340241
686	C	0.827101	0.137281	0.340258
687	N	0.861409	0.157987	0.340248
688	N	0.909933	0.213955	0.340002
689	N	0.814535	0.103216	0.340016
690	N	0.799194	0.198612	0.339985
691	C	0.73357	0.267413	0.339679
692	C	0.722785	0.23256	0.349178
693	C	0.745195	0.219502	0.341306
694	C	0.781093	0.242321	0.671459
695	C	0.79255	0.278004	0.669151
696	C	0.768698	0.289477	0.662775
697	C	0.730314	0.18209	0.333623
698	H	0.703037	0.168687	0.327143
699	H	0.734974	0.170382	0.362779
700	H	0.741415	0.177726	0.303564
701	C	0.688971	0.210229	0.37123
702	H	0.684278	0.224151	0.397575
703	H	0.687454	0.18823	0.388238
704	H	0.66871	0.20132	0.346213
705	C	0.829489	0.303874	0.675292
706	H	0.83975	0.297232	0.704314
707	H	0.834137	0.329406	0.682379
708	H	0.843783	0.304964	0.645195
709	C	0.780225	0.323137	0.640456
710	H	0.761975	0.320914	0.614873
711	H	0.804189	0.332691	0.622358
712	H	0.783196	0.342014	0.665473
713	C	0.709222	0.27866	0.34016
714	H	0.683994	0.260901	0.341669
715	C	0.805464	0.231037	0.670462
716	H	0.83053	0.248596	0.66649
717	C	0.745733	0.468791	0.339692
718	C	0.780594	0.49286	0.349171
719	C	0.793646	0.028327	0.341302
720	C	0.770826	0.041408	0.671496
721	C	0.735142	0.017184	0.669222
722	C	0.723664	0.48186	0.662842
723	C	0.831048	0.050852	0.333544
724	H	0.844441	0.036975	0.327008
725	H	0.842795	0.067223	0.362685
726	H	0.835379	0.066317	0.303491
727	C	0.802951	0.481372	0.371133
728	H	0.789059	0.462757	0.39749
729	H	0.824973	0.501852	0.388106
730	H	0.811826	0.470019	0.346075
731	C	0.709276	0.028252	0.67543
732	H	0.715947	0.045158	0.704452
733	H	0.683752	0.007366	0.682558
734	H	0.708153	0.04145	0.64535
735	C	0.68999	0.45972	0.640564
736	H	0.692201	0.443707	0.614947
737	H	0.68041	0.474128	0.622509
738	H	0.671137	0.443803	0.665594
739	C	0.734489	0.433197	0.34016
740	H	0.752247	0.425727	0.341649
741	C	0.782111	0.077063	0.670505
742	H	0.764551	0.084571	0.666537
743	C	0.544355	0.279569	0.339692
744	C	0.520289	0.290369	0.349147
745	C	0.984824	0.267952	0.341279
746	C	0.971742	0.232052	0.671502
747	C	0.995964	0.220589	0.669262
748	C	0.53129	0.24443	0.662856
749	C	0.962299	0.282827	0.333501
750	H	0.976177	0.310094	0.326954
751	H	0.945927	0.27821	0.362641
752	H	0.946834	0.271685	0.30345
753	C	0.53178	0.324217	0.371099
754	H	0.550386	0.328938	0.397467
755	H	0.511297	0.325764	0.388056
756	H	0.543142	0.344441	0.346035
757	C	0.984894	0.18366	0.675524
758	H	0.96798	0.173443	0.70454
759	H	0.005777	0.179026	0.682692
760	H	0.971705	0.16932	0.645451
761	C	0.553434	0.232872	0.640655
762	H	0.569454	0.251071	0.615015
763	H	0.539034	0.208868	0.622637
764	H	0.569346	0.229962	0.665722
765	C	0.579951	0.30392	0.340157
766	H	0.587423	0.329149	0.341643
767	C	0.936085	0.207681	0.670505
768	H	0.928579	0.182612	0.666561
769	C	0.639875	0.318304	0.673867
770	N	0.660351	0.304441	0.673827
771	C	0.694847	0.324202	0.673864
772	N	0.708711	0.358543	0.673823
773	C	0.688949	0.373276	0.673864
774	N	0.654608	0.352801	0.673827
775	N	0.605764	0.297041	0.673486
776	N	0.701796	0.407386	0.673483
777	N	0.716109	0.311355	0.673476
778	C	0.875867	0.192454	0.673581
779	N	0.855162	0.206057	0.673564
780	C	0.820694	0.186049	0.673574
781	N	0.807092	0.151741	0.673574
782	C	0.827101	0.137281	0.673591
783	N	0.861409	0.157987	0.673584
784	N	0.909933	0.213955	0.673335
785	N	0.814535	0.103216	0.673348
786	N	0.799194	0.198612	0.673318
787	C	0.73357	0.267413	0.673011
788	C	0.722785	0.23256	0.68251
789	C	0.745195	0.219502	0.674638
790	C	0.781093	0.242321	0.004791
791	C	0.79255	0.278004	0.002484
792	C	0.768698	0.289477	0.996108
793	C	0.730314	0.18209	0.666955
794	H	0.703037	0.168687	0.660478
795	H	0.734974	0.170382	0.696112
796	H	0.741415	0.177726	0.636896
797	C	0.688971	0.210229	0.704563
798	H	0.684278	0.224151	0.730907
799	H	0.687454	0.18823	0.72157
800	H	0.66871	0.20132	0.679546
801	C	0.829489	0.303874	0.008625
802	H	0.83975	0.297232	0.037649
803	H	0.834137	0.329406	0.015715
804	H	0.843783	0.304964	0.978531
805	C	0.780225	0.323137	0.973789
806	H	0.761975	0.320914	0.948206
807	H	0.804189	0.332691	0.95569
808	H	0.783196	0.342014	0.998806
809	C	0.709222	0.27866	0.673493
810	H	0.683994	0.260901	0.675006
811	C	0.805464	0.231037	0.003794
812	H	0.83053	0.248596	0.999823
813	C	0.745733	0.468791	0.673025
814	C	0.780594	0.49286	0.682504
815	C	0.793646	0.028327	0.674635
816	C	0.770826	0.041408	0.004828
817	C	0.735142	0.017184	0.002555
818	C	0.723664	0.48186	0.996175
819	C	0.831048	0.050852	0.666878
820	H	0.844441	0.036975	0.66034
821	H	0.842795	0.067223	0.696018
822	H	0.835379	0.066317	0.636825
823	C	0.802951	0.481372	0.704466
824	H	0.789059	0.462757	0.730823
825	H	0.824973	0.501852	0.721439
826	H	0.811826	0.470019	0.679408
827	C	0.709276	0.028252	0.008764
828	H	0.715947	0.045158	0.037787
829	H	0.683752	0.007366	0.015893
830	H	0.708153	0.04145	0.978683
831	C	0.68999	0.45972	0.973896
832	H	0.692201	0.443707	0.94828
833	H	0.68041	0.474128	0.955842
834	H	0.671137	0.443803	0.998927
835	C	0.734489	0.433197	0.673493
836	H	0.752247	0.425727	0.674982
837	C	0.782111	0.077063	0.003838
838	H	0.764551	0.084571	0.99987
839	C	0.544355	0.279569	0.673025
840	C	0.520289	0.290369	0.68248
841	C	0.984824	0.267952	0.674611
842	C	0.971742	0.232052	0.004835
843	C	0.995964	0.220589	0.002595
844	C	0.53129	0.24443	0.996192
845	C	0.962299	0.282827	0.666834
846	H	0.976177	0.310094	0.660286
847	H	0.945927	0.27821	0.695974
848	H	0.946834	0.271685	0.636784
849	C	0.53178	0.324217	0.704432
850	H	0.550386	0.328938	0.7308
851	H	0.511297	0.325764	0.721388
852	H	0.543142	0.344441	0.679368
853	C	0.984894	0.18366	0.008857
854	H	0.96798	0.173443	0.037875
855	H	0.005777	0.179026	0.016026
856	H	0.971705	0.16932	0.978784
857	C	0.553434	0.232872	0.973987
858	H	0.569454	0.251071	0.948351
859	H	0.539034	0.208868	0.95597
860	H	0.569346	0.229962	0.999055
861	C	0.579951	0.30392	0.67349
862	H	0.587423	0.329149	0.674975
863	C	0.936085	0.207681	0.003838
864	H	0.928579	0.182612	0.999894
865	C	0.639874	0.818304	0.0072
866	N	0.66035	0.80444	0.007161
867	C	0.694846	0.824202	0.0072
868	N	0.70871	0.858541	0.007156
869	C	0.688947	0.873276	0.007199
870	N	0.654609	0.8528	0.007159
871	N	0.605764	0.797041	0.006819
872	N	0.701795	0.907386	0.006818
873	N	0.716109	0.811352	0.006811
874	C	0.875869	0.692454	0.006915
875	N	0.855163	0.706056	0.006898
876	C	0.820695	0.686048	0.006908
877	N	0.807093	0.65174	0.006909
878	C	0.8271	0.637282	0.006925
879	N	0.861407	0.657986	0.006917
880	N	0.909931	0.713953	0.006668
881	N	0.814536	0.603215	0.006682
882	N	0.799192	0.698611	0.006653
883	C	0.733571	0.767413	0.006345
884	C	0.722786	0.732561	0.015846
885	C	0.745193	0.7195	0.007973
886	C	0.781092	0.742321	0.338126
887	C	0.792551	0.778004	0.335817
888	C	0.768697	0.789477	0.329443
889	C	0.730313	0.682089	0.000288
890	H	0.703036	0.668686	0.99381
891	H	0.734976	0.670383	0.029446
892	H	0.741416	0.677727	0.970228
893	C	0.68897	0.710228	0.037896
894	H	0.684279	0.72415	0.06424
895	H	0.687454	0.688228	0.054904
896	H	0.668711	0.70132	0.012882
897	C	0.82949	0.803874	0.341959
898	H	0.839749	0.797232	0.370981
899	H	0.834138	0.829406	0.349046
900	H	0.843784	0.804964	0.311864
901	C	0.780224	0.823137	0.307125
902	H	0.761974	0.820914	0.281539
903	H	0.80419	0.832691	0.289024
904	H	0.783194	0.842011	0.332141
905	C	0.709223	0.77866	0.006829
906	H	0.683995	0.760901	0.008338
907	C	0.805463	0.731036	0.337129
908	H	0.83053	0.748595	0.333159
909	C	0.745734	0.968791	0.006358
910	C	0.780595	0.99286	0.01584
911	C	0.793644	0.528327	0.007971
912	C	0.770827	0.541408	0.338163
913	C	0.735141	0.517185	0.335888
914	C	0.723665	0.98186	0.32951
915	C	0.831048	0.550853	0.00021
916	H	0.844439	0.536974	0.993672
917	H	0.842793	0.567222	0.029353
918	H	0.835378	0.566317	0.970158
919	C	0.802952	0.981372	0.0378
920	H	0.789058	0.962756	0.064157
921	H	0.824972	0.001852	0.054773
922	H	0.811825	0.970019	0.012741
923	C	0.709276	0.528251	0.342097
924	H	0.715948	0.545158	0.371119
925	H	0.683752	0.507366	0.349225
926	H	0.708154	0.541448	0.312017
927	C	0.68999	0.95972	0.307231
928	H	0.6922	0.943707	0.281613
929	H	0.680411	0.974127	0.289176
930	H	0.671137	0.943803	0.332263
931	C	0.73449	0.933197	0.006828
932	H	0.752248	0.925727	0.008315
933	C	0.78211	0.577063	0.337173
934	H	0.764551	0.584569	0.333206
935	C	0.544356	0.779569	0.006358
936	C	0.520289	0.790366	0.015816
937	C	0.984823	0.767952	0.007946
938	C	0.97174	0.73205	0.33817
939	C	0.995965	0.720588	0.335929
940	C	0.53129	0.74443	0.329524
941	C	0.962298	0.782827	0.000167
942	H	0.976176	0.810094	0.993618
943	H	0.945926	0.77821	0.029308
944	H	0.946835	0.771685	0.970117
945	C	0.531781	0.824217	0.037766
946	H	0.550386	0.828938	0.064135
947	H	0.511297	0.825764	0.054722
948	H	0.543143	0.844441	0.012703
949	C	0.984895	0.68366	0.342192
950	H	0.96798	0.673442	0.371207
951	H	0.005778	0.679025	0.34936
952	H	0.971705	0.669321	0.312117
953	C	0.553434	0.732871	0.307321
954	H	0.569453	0.75107	0.281683
955	H	0.539034	0.708869	0.289305
956	H	0.569345	0.729962	0.33239
957	C	0.579951	0.80392	0.006823
958	H	0.587421	0.829146	0.00831
959	C	0.936086	0.70768	0.337173
960	H	0.928577	0.68261	0.33323
961	C	0.639874	0.818304	0.340534
962	N	0.66035	0.80444	0.340494
963	C	0.694846	0.824202	0.340531
964	N	0.70871	0.858541	0.340487
965	C	0.688947	0.873276	0.340531
966	N	0.654609	0.8528	0.340491
967	N	0.605764	0.797041	0.340154
968	N	0.701795	0.907386	0.34015
969	N	0.716109	0.811352	0.340144
970	C	0.875869	0.692454	0.340248
971	N	0.855163	0.706056	0.340231
972	C	0.820695	0.686048	0.340241
973	N	0.807093	0.65174	0.340241
974	C	0.8271	0.637282	0.340258
975	N	0.861407	0.657986	0.340248
976	N	0.909931	0.713953	0.340002
977	N	0.814536	0.603215	0.340016
978	N	0.799192	0.698611	0.339985
979	C	0.733571	0.767413	0.339679
980	C	0.722786	0.732561	0.349178
981	C	0.745193	0.7195	0.341306
982	C	0.781092	0.742321	0.671459
983	C	0.792551	0.778004	0.669151
984	C	0.768697	0.789477	0.662775
985	C	0.730313	0.682089	0.333624
986	H	0.703036	0.668686	0.327143
987	H	0.734976	0.670383	0.362779
988	H	0.741416	0.677727	0.303564
989	C	0.68897	0.710228	0.37123
990	H	0.684279	0.72415	0.397575
991	H	0.687454	0.688228	0.388238
992	H	0.668711	0.70132	0.346213
993	C	0.82949	0.803874	0.675292
994	H	0.839749	0.797232	0.704314
995	H	0.834138	0.829406	0.682379
996	H	0.843784	0.804964	0.645195
997	C	0.780224	0.823137	0.640456
998	H	0.761974	0.820914	0.614873
999	H	0.80419	0.832691	0.622358
1000	H	0.783194	0.842011	0.665473
1001	C	0.709223	0.77866	0.34016
1002	H	0.683995	0.760901	0.341669
1003	C	0.805463	0.731036	0.670462
1004	H	0.83053	0.748595	0.66649
1005	C	0.745734	0.968791	0.339692
1006	C	0.780595	0.99286	0.349171
1007	C	0.793644	0.528327	0.341302
1008	C	0.770827	0.541408	0.671496
1009	C	0.735141	0.517185	0.669222
1010	C	0.723665	0.98186	0.662842
1011	C	0.831048	0.550853	0.333544
1012	H	0.844439	0.536974	0.327008
1013	H	0.842793	0.567222	0.362685
1014	H	0.835378	0.566317	0.303491
1015	C	0.802952	0.981372	0.371133
1016	H	0.789058	0.962756	0.39749
1017	H	0.824972	0.001852	0.388106
1018	H	0.811825	0.970019	0.346075
1019	C	0.709276	0.528251	0.67543
1020	H	0.715948	0.545158	0.704452
1021	H	0.683752	0.507366	0.682558
1022	H	0.708154	0.541448	0.64535
1023	C	0.68999	0.95972	0.640564
1024	H	0.6922	0.943707	0.614947
1025	H	0.680411	0.974127	0.622509
1026	H	0.671137	0.943803	0.665594
1027	C	0.73449	0.933197	0.34016
1028	H	0.752248	0.925727	0.341649
1029	C	0.78211	0.577063	0.670505
1030	H	0.764551	0.584569	0.666537
1031	C	0.544356	0.779569	0.339692
1032	C	0.520289	0.790366	0.349147
1033	C	0.984823	0.767952	0.341279
1034	C	0.97174	0.73205	0.671502
1035	C	0.995965	0.720588	0.669262
1036	C	0.53129	0.74443	0.662856
1037	C	0.962298	0.782827	0.333501
1038	H	0.976176	0.810094	0.326954
1039	H	0.945926	0.77821	0.362641
1040	H	0.946835	0.771685	0.30345
1041	C	0.531781	0.824217	0.371099
1042	H	0.550386	0.828938	0.397467
1043	H	0.511297	0.825764	0.388056
1044	H	0.543143	0.844441	0.346035
1045	C	0.984895	0.68366	0.675524
1046	H	0.96798	0.673442	0.70454
1047	H	0.005778	0.679025	0.682692
1048	H	0.971705	0.669321	0.645451
1049	C	0.553434	0.732871	0.640655
1050	H	0.569453	0.75107	0.615015
1051	H	0.539034	0.708869	0.622637
1052	H	0.569345	0.729962	0.665722
1053	C	0.579951	0.80392	0.340157
1054	H	0.587421	0.829146	0.341643
1055	C	0.936086	0.70768	0.670505
1056	H	0.928577	0.68261	0.666561
1057	C	0.639874	0.818304	0.673867
1058	N	0.66035	0.80444	0.673827
1059	C	0.694846	0.824202	0.673864
1060	N	0.70871	0.858541	0.673823
1061	C	0.688947	0.873276	0.673864
1062	N	0.654609	0.8528	0.673827
1063	N	0.605764	0.797041	0.673486
1064	N	0.701795	0.907386	0.673483
1065	N	0.716109	0.811352	0.673476
1066	C	0.875869	0.692454	0.673581
1067	N	0.855163	0.706056	0.673564
1068	C	0.820695	0.686048	0.673574
1069	N	0.807093	0.65174	0.673574
1070	C	0.8271	0.637282	0.673591
1071	N	0.861407	0.657986	0.673584
1072	N	0.909931	0.713953	0.673335
1073	N	0.814536	0.603215	0.673348
1074	N	0.799192	0.698611	0.673318
1075	C	0.733571	0.767413	0.673011
1076	C	0.722786	0.732561	0.68251
1077	C	0.745193	0.7195	0.674638
1078	C	0.781092	0.742321	0.004791
1079	C	0.792551	0.778004	0.002484
1080	C	0.768697	0.789477	0.996108
1081	C	0.730313	0.682089	0.666955
1082	H	0.703036	0.668686	0.660478
1083	H	0.734976	0.670383	0.696112
1084	H	0.741416	0.677727	0.636896
1085	C	0.68897	0.710228	0.704563
1086	H	0.684279	0.72415	0.730907
1087	H	0.687454	0.688228	0.72157
1088	H	0.668711	0.70132	0.679546
1089	C	0.82949	0.803874	0.008625
1090	H	0.839749	0.797232	0.037649
1091	H	0.834138	0.829406	0.015715
1092	H	0.843784	0.804964	0.978531
1093	C	0.780224	0.823137	0.973789
1094	H	0.761974	0.820914	0.948206
1095	H	0.80419	0.832691	0.95569
1096	H	0.783194	0.842011	0.998806
1097	C	0.709223	0.77866	0.673497
1098	H	0.683995	0.760901	0.675006
1099	C	0.805463	0.731036	0.003794
1100	H	0.83053	0.748595	0.999823
1101	C	0.745734	0.968791	0.673025
1102	C	0.780595	0.99286	0.682504
1103	C	0.793644	0.528327	0.674635
1104	C	0.770827	0.541408	0.004828
1105	C	0.735141	0.517185	0.002555
1106	C	0.723665	0.98186	0.996175
1107	C	0.831048	0.550853	0.666878
1108	H	0.844439	0.536974	0.66034
1109	H	0.842793	0.567222	0.696018
1110	H	0.835378	0.566317	0.636825
1111	C	0.802952	0.981372	0.704466
1112	H	0.789058	0.962756	0.730823
1113	H	0.824972	0.001852	0.721439
1114	H	0.811825	0.970019	0.679408
1115	C	0.709276	0.528251	0.008764
1116	H	0.715948	0.545158	0.037787
1117	H	0.683752	0.507366	0.015893
1118	H	0.708154	0.541448	0.978683
1119	C	0.68999	0.95972	0.973896
1120	H	0.6922	0.943707	0.94828
1121	H	0.680411	0.974127	0.955842
1122	H	0.671137	0.943803	0.998927
1123	C	0.73449	0.933197	0.673493
1124	H	0.752248	0.925727	0.674982
1125	C	0.78211	0.577063	0.003838
1126	H	0.764551	0.584569	0.99987
1127	C	0.544356	0.779569	0.673025
1128	C	0.520289	0.790366	0.68248
1129	C	0.984823	0.767952	0.674611
1130	C	0.97174	0.73205	0.004835
1131	C	0.995965	0.720588	0.002595
1132	C	0.53129	0.74443	0.996192
1133	C	0.962298	0.782827	0.666834
1134	H	0.976176	0.810094	0.660286
1135	H	0.945926	0.77821	0.695974
1136	H	0.946835	0.771685	0.636784
1137	C	0.531781	0.824217	0.704432
1138	H	0.550386	0.828938	0.7308
1139	H	0.511297	0.825764	0.721388
1140	H	0.543143	0.844441	0.679368
1141	C	0.984895	0.68366	0.008857
1142	H	0.96798	0.673442	0.037875
1143	H	0.005778	0.679025	0.016026
1144	H	0.971705	0.669321	0.978784
1145	C	0.553434	0.732871	0.973987
1146	H	0.569453	0.75107	0.948351
1147	H	0.539034	0.708869	0.95597
1148	H	0.569345	0.729962	0.999055
1149	C	0.579951	0.80392	0.67349
1150	H	0.587421	0.829146	0.674975
1151	C	0.936086	0.70768	0.003838
1152	H	0.928577	0.68261	0.999894
