data_C432H144N288_2018-02-15_10:37:41
#******************************************
#
# CIF file created by Zeo++
# Zeo++ is an open source package to
# analyze microporous materials
#
#*******************************************

_cell_length_a		44.3089   
_cell_length_b		44.3135   
_cell_length_c		29.4696   
_cell_angle_alpha		90   
_cell_angle_beta		90   
_cell_angle_gamma		120.01   

_symmetry_space_group_name_H-M		'P1'
_symmetry_Int_Tables_number		1
_symmetry_cell_setting		Monoclinic

loop_
_symmetry_equiv_pos_as_xyz
'+x,+y,+z'

loop_
_atom_site_label
_atom_site_type_symbol
_atom_site_fract_x
_atom_site_fract_y
_atom_site_fract_z
1	N	0.028541	0.043022	0.008844
2	C	0.046497	0.025531	0.008889
3	N	0.028547	0.49008	0.008851
4	N	0.210448	0.13414	0.009665
5	C	0.19257	0.098564	0.009361
6	N	0.210417	0.080841	0.00878
7	C	0.136554	0.070766	0.050459
8	N	0.101133	0.053041	0.048319
9	C	0.083155	0.043867	0.341861
10	C	0.10251	0.053352	0.30114
11	N	0.137931	0.071062	0.30328
12	C	0.15591	0.080241	0.343069
13	H	0.148609	0.076927	0.08139
14	H	0.090456	0.047185	0.270208
15	N	0.028541	0.043022	0.34218
16	C	0.046497	0.025531	0.342221
17	N	0.028547	0.49008	0.342184
18	N	0.210448	0.13414	0.342998
19	C	0.19257	0.098564	0.342696
20	N	0.210417	0.080841	0.342116
21	C	0.136554	0.070766	0.383793
22	N	0.101133	0.053041	0.381651
23	C	0.083155	0.043867	0.675195
24	C	0.10251	0.053352	0.634472
25	N	0.137931	0.071062	0.636613
26	C	0.15591	0.080241	0.676403
27	H	0.148609	0.076927	0.414723
28	H	0.090456	0.047185	0.603541
29	N	0.028541	0.043022	0.675511
30	C	0.046497	0.025531	0.675555
31	N	0.028547	0.49008	0.675517
32	N	0.210448	0.13414	0.676332
33	C	0.19257	0.098564	0.676026
34	N	0.210417	0.080841	0.675446
35	C	0.136554	0.070766	0.717123
36	N	0.101133	0.053041	0.714985
37	C	0.083155	0.043867	0.008529
38	C	0.10251	0.053352	0.967805
39	N	0.137931	0.071062	0.969947
40	C	0.15591	0.080241	0.009738
41	H	0.148609	0.076927	0.748057
42	H	0.090456	0.047185	0.936875
43	N	0.028541	0.543024	0.008844
44	C	0.046497	0.525532	0.008889
45	N	0.028549	0.990081	0.008851
46	N	0.210448	0.634141	0.009665
47	C	0.19257	0.598563	0.009361
48	N	0.210418	0.580842	0.00878
49	C	0.136556	0.570767	0.050459
50	N	0.101134	0.553041	0.048319
51	C	0.083156	0.543868	0.341861
52	C	0.10251	0.553351	0.30114
53	N	0.137931	0.571062	0.30328
54	C	0.155911	0.580243	0.343069
55	H	0.14861	0.576928	0.08139
56	H	0.090457	0.547186	0.270208
57	N	0.028541	0.543024	0.34218
58	C	0.046497	0.525532	0.342221
59	N	0.028549	0.990081	0.342184
60	N	0.210448	0.634141	0.342998
61	C	0.19257	0.598563	0.342696
62	N	0.210418	0.580842	0.342116
63	C	0.136556	0.570767	0.383793
64	N	0.101134	0.553041	0.381651
65	C	0.083156	0.543868	0.675195
66	C	0.10251	0.553351	0.634472
67	N	0.137931	0.571062	0.636613
68	C	0.155911	0.580243	0.676403
69	H	0.14861	0.576928	0.414723
70	H	0.090457	0.547186	0.603541
71	N	0.028541	0.543024	0.675511
72	C	0.046497	0.525532	0.675555
73	N	0.028549	0.990081	0.675517
74	N	0.210448	0.634141	0.676332
75	C	0.19257	0.598563	0.676026
76	N	0.210418	0.580842	0.675446
77	C	0.136556	0.570767	0.717123
78	N	0.101134	0.553041	0.714985
79	C	0.083156	0.543868	0.008529
80	C	0.10251	0.553351	0.967805
81	N	0.137931	0.571062	0.969947
82	C	0.155911	0.580243	0.009738
83	H	0.14861	0.576928	0.748057
84	H	0.090457	0.547186	0.936875
85	C	0.245902	0.151942	0.00934
86	C	0.245872	0.098475	0.008532
87	N	0.262959	0.13374	0.008794
88	C	0.283483	0.082392	0.300835
89	N	0.314924	0.084108	0.303247
90	C	0.313089	0.082533	0.050179
91	N	0.283443	0.084402	0.047646
92	C	0.26694	0.083084	0.008111
93	H	0.274996	0.085837	0.270038
94	H	0.325208	0.086503	0.08092
95	C	0.313061	0.23512	0.300878
96	N	0.283344	0.203664	0.303283
97	C	0.267013	0.188419	0.009512
98	C	0.283518	0.205528	0.050227
99	N	0.315026	0.235198	0.047755
100	H	0.325027	0.243616	0.270099
101	H	0.275325	0.193414	0.080966
102	C	0.245902	0.151942	0.342672
103	C	0.245872	0.098475	0.341868
104	N	0.262959	0.13374	0.342129
105	C	0.283483	0.082392	0.63417
106	N	0.314924	0.084108	0.636579
107	C	0.313089	0.082533	0.383511
108	N	0.283443	0.084402	0.38098
109	C	0.26694	0.083084	0.341447
110	H	0.274996	0.085837	0.603372
111	H	0.325208	0.086503	0.414255
112	C	0.313061	0.23512	0.63421
113	N	0.283344	0.203664	0.636616
114	C	0.267013	0.188419	0.342845
115	C	0.283518	0.205528	0.383559
116	N	0.315026	0.235198	0.381088
117	H	0.325027	0.243616	0.603433
118	H	0.275325	0.193414	0.414299
119	C	0.245902	0.151942	0.676006
120	C	0.245872	0.098475	0.675198
121	N	0.262959	0.13374	0.67546
122	C	0.283483	0.082392	0.9675
123	N	0.314924	0.084108	0.969913
124	C	0.313089	0.082533	0.716845
125	N	0.283443	0.084402	0.714313
126	C	0.26694	0.083084	0.674778
127	H	0.274996	0.085837	0.936702
128	H	0.325208	0.086503	0.747585
129	C	0.313061	0.23512	0.967544
130	N	0.283344	0.203664	0.96995
131	C	0.267013	0.188419	0.676179
132	C	0.283518	0.205528	0.716892
133	N	0.315026	0.235198	0.714422
134	H	0.325027	0.243616	0.936763
135	H	0.275325	0.193414	0.747632
136	C	0.245903	0.651942	0.00934
137	C	0.245872	0.598475	0.008532
138	N	0.26296	0.633742	0.008794
139	C	0.283484	0.582393	0.300835
140	N	0.314925	0.584108	0.303247
141	C	0.313089	0.582534	0.050179
142	N	0.283444	0.584402	0.047646
143	C	0.26694	0.583083	0.008111
144	H	0.274996	0.585838	0.270038
145	H	0.325209	0.586503	0.08092
146	C	0.313062	0.735121	0.300878
147	N	0.283345	0.703664	0.303283
148	C	0.267013	0.688419	0.009512
149	C	0.283518	0.705527	0.050227
150	N	0.315027	0.735199	0.047755
151	H	0.325028	0.743617	0.270099
152	H	0.275325	0.693414	0.080966
153	C	0.245903	0.651942	0.342672
154	C	0.245872	0.598475	0.341868
155	N	0.26296	0.633742	0.342129
156	C	0.283484	0.582393	0.63417
157	N	0.314925	0.584108	0.636579
158	C	0.313089	0.582534	0.383511
159	N	0.283444	0.584402	0.38098
160	C	0.26694	0.583083	0.341447
161	H	0.274996	0.585838	0.603372
162	H	0.325209	0.586503	0.414255
163	C	0.313062	0.735121	0.63421
164	N	0.283345	0.703664	0.636616
165	C	0.267013	0.688419	0.342845
166	C	0.283518	0.705527	0.383559
167	N	0.315027	0.735199	0.381088
168	H	0.325028	0.743617	0.603433
169	H	0.275325	0.693414	0.414299
170	C	0.245903	0.651942	0.676006
171	C	0.245872	0.598475	0.675198
172	N	0.26296	0.633742	0.67546
173	C	0.283484	0.582393	0.9675
174	N	0.314925	0.584108	0.969913
175	C	0.313089	0.582534	0.716845
176	N	0.283444	0.584402	0.714313
177	C	0.26694	0.583083	0.674778
178	H	0.274996	0.585838	0.936702
179	H	0.325209	0.586503	0.747585
180	C	0.313062	0.735121	0.967544
181	N	0.283345	0.703664	0.96995
182	C	0.267013	0.688419	0.676179
183	C	0.283518	0.705527	0.716892
184	N	0.315027	0.735199	0.714422
185	H	0.325028	0.743617	0.936763
186	H	0.275325	0.693414	0.747632
187	C	0.366657	0.098435	0.009308
188	N	0.384461	0.080793	0.00958
189	N	0.38486	0.133698	0.008851
190	N	0.384486	0.308198	0.008824
191	C	0.36668	0.272746	0.008546
192	N	0.384884	0.255689	0.00876
193	C	0.330176	0.083062	0.009484
194	C	0.330202	0.251645	0.008206
195	C	0.366657	0.098435	0.342642
196	N	0.384461	0.080793	0.342913
197	N	0.38486	0.133698	0.342187
198	N	0.384486	0.308198	0.342156
199	C	0.36668	0.272746	0.341882
200	N	0.384884	0.255689	0.342092
201	C	0.330176	0.083062	0.342818
202	C	0.330202	0.251645	0.341542
203	C	0.366657	0.098435	0.675972
204	N	0.384461	0.080793	0.676247
205	N	0.38486	0.133698	0.675521
206	N	0.384486	0.308198	0.67549
207	C	0.36668	0.272746	0.675212
208	N	0.384884	0.255689	0.675426
209	C	0.330176	0.083062	0.676149
210	C	0.330202	0.251645	0.674876
211	C	0.366657	0.598435	0.009308
212	N	0.384461	0.580793	0.00958
213	N	0.384861	0.633698	0.008851
214	N	0.384485	0.808196	0.008824
215	C	0.366682	0.772747	0.008546
216	N	0.384886	0.75569	0.00876
217	C	0.330176	0.583063	0.009484
218	C	0.330203	0.751646	0.008206
219	C	0.366657	0.598435	0.342642
220	N	0.384461	0.580793	0.342913
221	N	0.384861	0.633698	0.342187
222	N	0.384485	0.808196	0.342156
223	C	0.366682	0.772747	0.341882
224	N	0.384886	0.75569	0.342092
225	C	0.330176	0.583063	0.342818
226	C	0.330203	0.751646	0.341542
227	C	0.366657	0.598435	0.675972
228	N	0.384461	0.580793	0.676247
229	N	0.384861	0.633698	0.675521
230	N	0.384485	0.808196	0.67549
231	C	0.366682	0.772747	0.675212
232	N	0.384886	0.75569	0.675426
233	C	0.330176	0.583063	0.676149
234	C	0.330203	0.751646	0.674876
235	C	0.493094	0.472122	0.008885
236	N	0.475589	0.490064	0.008841
237	C	0.493088	0.025514	0.008878
238	C	0.420041	0.098507	0.009315
239	N	0.437766	0.134083	0.008831
240	C	0.420128	0.15189	0.0086
241	C	0.420152	0.272772	0.00927
242	N	0.437788	0.308219	0.00961
243	C	0.420062	0.326068	0.00936
244	C	0.447869	0.07034	0.050426
245	N	0.465597	0.052653	0.048297
246	C	0.474754	0.043829	0.341844
247	C	0.465242	0.053662	0.301116
248	N	0.447526	0.071361	0.303246
249	C	0.438366	0.080182	0.343032
250	H	0.44172	0.076249	0.081354
251	H	0.471394	0.047757	0.270188
252	C	0.448243	0.382076	0.05046
253	N	0.465942	0.417492	0.04832
254	C	0.474767	0.435468	0.341861
255	C	0.46492	0.416116	0.30114
256	N	0.447208	0.380697	0.303281
257	C	0.438387	0.362724	0.343073
258	H	0.442336	0.370023	0.081392
259	H	0.470825	0.428169	0.270208
260	C	0.436109	0.205482	0.301012
261	N	0.434394	0.235207	0.303292
262	C	0.435523	0.251682	0.009399
263	C	0.436196	0.235249	0.050152
264	N	0.43431	0.203728	0.047774
265	C	0.435489	0.188338	0.008369
266	H	0.432624	0.193489	0.27025
267	H	0.432326	0.243499	0.080879
268	C	0.493094	0.472122	0.342221
269	N	0.475589	0.490064	0.342177
270	C	0.493088	0.025514	0.342214
271	C	0.420041	0.098507	0.342648
272	N	0.437766	0.134083	0.342163
273	C	0.420128	0.15189	0.341933
274	C	0.420152	0.272772	0.342604
275	N	0.437788	0.308219	0.342944
276	C	0.420062	0.326068	0.342693
277	C	0.447869	0.07034	0.383759
278	N	0.465597	0.052653	0.381631
279	C	0.474754	0.043829	0.675178
280	C	0.465242	0.053662	0.634448
281	N	0.447526	0.071361	0.636579
282	C	0.438366	0.080182	0.676366
283	H	0.44172	0.076249	0.414686
284	H	0.471394	0.047757	0.603521
285	C	0.448243	0.382076	0.383793
286	N	0.465942	0.417492	0.381651
287	C	0.474767	0.435468	0.675195
288	C	0.46492	0.416116	0.634472
289	N	0.447208	0.380697	0.636613
290	C	0.438387	0.362724	0.676403
291	H	0.442336	0.370023	0.414723
292	H	0.470825	0.428169	0.603541
293	C	0.436109	0.205482	0.634346
294	N	0.434394	0.235207	0.636626
295	C	0.435523	0.251682	0.342733
296	C	0.436196	0.235249	0.383484
297	N	0.43431	0.203728	0.381109
298	C	0.435489	0.188338	0.341705
299	H	0.432624	0.193489	0.603582
300	H	0.432326	0.243499	0.41421
301	C	0.493094	0.472122	0.675555
302	N	0.475589	0.490064	0.675511
303	C	0.493088	0.025514	0.675548
304	C	0.420041	0.098507	0.675982
305	N	0.437766	0.134083	0.675497
306	C	0.420128	0.15189	0.675266
307	C	0.420152	0.272772	0.675935
308	N	0.437788	0.308219	0.676274
309	C	0.420062	0.326068	0.676026
310	C	0.447869	0.07034	0.717093
311	N	0.465597	0.052653	0.714961
312	C	0.474754	0.043829	0.008508
313	C	0.465242	0.053662	0.967782
314	N	0.447526	0.071361	0.969913
315	C	0.438366	0.080182	0.009699
316	H	0.44172	0.076249	0.748019
317	H	0.471394	0.047757	0.936855
318	C	0.448243	0.382076	0.717126
319	N	0.465942	0.417492	0.714985
320	C	0.474767	0.435468	0.008529
321	C	0.46492	0.416116	0.967805
322	N	0.447208	0.380697	0.969947
323	C	0.438387	0.362724	0.009739
324	H	0.442336	0.370023	0.748057
325	H	0.470825	0.428169	0.936872
326	C	0.436109	0.205482	0.967677
327	N	0.434394	0.235207	0.969957
328	C	0.435523	0.251682	0.676064
329	C	0.436196	0.235249	0.716818
330	N	0.43431	0.203728	0.714439
331	C	0.435489	0.188338	0.675039
332	H	0.432624	0.193489	0.936916
333	H	0.432326	0.243499	0.747544
334	C	0.493095	0.972123	0.008885
335	N	0.47559	0.990065	0.008841
336	C	0.493087	0.525514	0.008878
337	C	0.420042	0.598508	0.009315
338	N	0.437768	0.634083	0.008831
339	C	0.420129	0.65189	0.0086
340	C	0.420151	0.77277	0.00927
341	N	0.437788	0.80822	0.00961
342	C	0.420064	0.826069	0.00936
343	C	0.447869	0.57034	0.050426
344	N	0.465597	0.552653	0.048297
345	C	0.474753	0.543829	0.341844
346	C	0.465242	0.553661	0.301116
347	N	0.447528	0.571362	0.303246
348	C	0.438368	0.580183	0.343032
349	H	0.441722	0.57625	0.081354
350	H	0.471393	0.547756	0.270188
351	C	0.448244	0.882077	0.05046
352	N	0.465943	0.917493	0.04832
353	C	0.474768	0.935469	0.341861
354	C	0.46492	0.916117	0.30114
355	N	0.447209	0.880698	0.303281
356	C	0.438386	0.862722	0.343073
357	H	0.442336	0.870022	0.081392
358	H	0.470824	0.928167	0.270208
359	C	0.436109	0.705483	0.301012
360	N	0.434395	0.735207	0.303292
361	C	0.435523	0.751682	0.009399
362	C	0.436195	0.735249	0.050152
363	N	0.434311	0.703729	0.047774
364	C	0.435489	0.688338	0.008369
365	H	0.432625	0.69349	0.27025
366	H	0.432328	0.743499	0.080879
367	C	0.493095	0.972123	0.342221
368	N	0.47559	0.990065	0.342177
369	C	0.493087	0.525514	0.342214
370	C	0.420042	0.598508	0.342648
371	N	0.437768	0.634083	0.342163
372	C	0.420129	0.65189	0.341933
373	C	0.420151	0.77277	0.342604
374	N	0.437788	0.80822	0.342944
375	C	0.420064	0.826069	0.342693
376	C	0.447869	0.57034	0.383759
377	N	0.465597	0.552653	0.381631
378	C	0.474753	0.543829	0.675178
379	C	0.465242	0.553661	0.634448
380	N	0.447528	0.571362	0.636579
381	C	0.438368	0.580183	0.676366
382	H	0.441722	0.57625	0.414686
383	H	0.471393	0.547756	0.603521
384	C	0.448244	0.882077	0.383793
385	N	0.465943	0.917493	0.381651
386	C	0.474768	0.935469	0.675195
387	C	0.46492	0.916117	0.634472
388	N	0.447209	0.880698	0.636613
389	C	0.438386	0.862722	0.676403
390	H	0.442336	0.870022	0.414723
391	H	0.470824	0.928167	0.603541
392	C	0.436109	0.705483	0.634346
393	N	0.434395	0.735207	0.636626
394	C	0.435523	0.751682	0.342733
395	C	0.436195	0.735249	0.383484
396	N	0.434311	0.703729	0.381109
397	C	0.435489	0.688338	0.341705
398	H	0.432625	0.69349	0.603582
399	H	0.432328	0.743499	0.41421
400	C	0.493095	0.972123	0.675555
401	N	0.47559	0.990065	0.675511
402	C	0.493087	0.525514	0.675548
403	C	0.420042	0.598508	0.675982
404	N	0.437768	0.634083	0.675497
405	C	0.420129	0.65189	0.675266
406	C	0.420151	0.77277	0.675935
407	N	0.437788	0.80822	0.676274
408	C	0.420064	0.826069	0.676026
409	C	0.447869	0.57034	0.717093
410	N	0.465597	0.552653	0.714961
411	C	0.474753	0.543829	0.008508
412	C	0.465242	0.553661	0.967782
413	N	0.447528	0.571362	0.969913
414	C	0.438368	0.580183	0.009699
415	H	0.441722	0.57625	0.748019
416	H	0.471393	0.547756	0.936855
417	C	0.448244	0.882077	0.717126
418	N	0.465943	0.917493	0.714985
419	C	0.474768	0.935469	0.008529
420	C	0.46492	0.916117	0.967805
421	N	0.447209	0.880698	0.969947
422	C	0.438386	0.862722	0.009739
423	H	0.442336	0.870022	0.748057
424	H	0.470824	0.928167	0.936872
425	C	0.436109	0.705483	0.967677
426	N	0.434395	0.735207	0.969957
427	C	0.435523	0.751682	0.676064
428	C	0.436195	0.735249	0.716818
429	N	0.434311	0.703729	0.714439
430	C	0.435489	0.688338	0.675039
431	H	0.432625	0.69349	0.936916
432	H	0.432328	0.743499	0.747544
433	C	0.993096	0.472122	0.008885
434	N	0.97559	0.490064	0.008841
435	C	0.993089	0.025514	0.008878
436	N	0.528542	0.043022	0.008844
437	C	0.546497	0.025531	0.008889
438	N	0.528548	0.49008	0.008851
439	C	0.745903	0.151942	0.00934
440	N	0.710449	0.13414	0.009665
441	C	0.69257	0.098564	0.009361
442	N	0.710418	0.080841	0.00878
443	C	0.745872	0.098475	0.008532
444	N	0.762961	0.13374	0.008794
445	C	0.866656	0.098435	0.009308
446	N	0.884462	0.080793	0.00958
447	C	0.920042	0.098507	0.009315
448	N	0.937767	0.134083	0.008831
449	C	0.920129	0.15189	0.0086
450	N	0.884861	0.133698	0.008851
451	C	0.920153	0.272772	0.00927
452	N	0.937789	0.308219	0.00961
453	C	0.920063	0.326068	0.00936
454	N	0.884487	0.308198	0.008824
455	C	0.866681	0.272746	0.008546
456	N	0.884885	0.255689	0.00876
457	C	0.636556	0.070766	0.050459
458	N	0.601134	0.053041	0.048319
459	C	0.583157	0.043867	0.341861
460	C	0.60251	0.053352	0.30114
461	N	0.637932	0.071062	0.30328
462	C	0.655912	0.080241	0.343069
463	H	0.648609	0.076927	0.08139
464	H	0.590457	0.047185	0.270208
465	C	0.94787	0.07034	0.050426
466	N	0.965598	0.052653	0.048297
467	C	0.974755	0.043829	0.341844
468	C	0.965243	0.053662	0.301116
469	N	0.947528	0.071361	0.303246
470	C	0.938367	0.080182	0.343032
471	H	0.941721	0.076249	0.081354
472	H	0.971393	0.047757	0.270188
473	C	0.948244	0.382076	0.05046
474	N	0.965943	0.417492	0.04832
475	C	0.974768	0.435468	0.341861
476	C	0.964921	0.416116	0.30114
477	N	0.947209	0.380697	0.303281
478	C	0.938388	0.362724	0.343073
479	H	0.942337	0.370023	0.081392
480	H	0.970826	0.428169	0.270208
481	C	0.783484	0.082392	0.300835
482	N	0.814925	0.084108	0.303247
483	C	0.830177	0.083062	0.009484
484	C	0.81309	0.082533	0.050179
485	N	0.783444	0.084402	0.047646
486	C	0.766941	0.083084	0.008111
487	H	0.774997	0.085837	0.270038
488	H	0.825209	0.086503	0.08092
489	C	0.936108	0.205482	0.301012
490	N	0.934395	0.235207	0.303292
491	C	0.935524	0.251682	0.009399
492	C	0.936197	0.235249	0.050152
493	N	0.934312	0.203728	0.047774
494	C	0.93549	0.188338	0.008369
495	H	0.932625	0.193489	0.27025
496	H	0.932327	0.243499	0.080879
497	C	0.813062	0.23512	0.300878
498	N	0.783346	0.203664	0.303283
499	C	0.767013	0.188419	0.009512
500	C	0.78352	0.205528	0.050227
501	N	0.815026	0.235198	0.047755
502	C	0.830202	0.251645	0.008206
503	H	0.825028	0.243616	0.270099
504	H	0.775326	0.193414	0.080966
505	C	0.993096	0.472122	0.342221
506	N	0.97559	0.490064	0.342177
507	C	0.993089	0.025514	0.342214
508	N	0.528542	0.043022	0.34218
509	C	0.546497	0.025531	0.342221
510	N	0.528548	0.49008	0.342184
511	C	0.745903	0.151942	0.342672
512	N	0.710449	0.13414	0.342998
513	C	0.69257	0.098564	0.342696
514	N	0.710418	0.080841	0.342116
515	C	0.745872	0.098475	0.341868
516	N	0.762961	0.13374	0.342129
517	C	0.866656	0.098435	0.342642
518	N	0.884462	0.080793	0.342913
519	C	0.920042	0.098507	0.342648
520	N	0.937767	0.134083	0.342163
521	C	0.920129	0.15189	0.341933
522	N	0.884861	0.133698	0.342187
523	C	0.920153	0.272772	0.342604
524	N	0.937789	0.308219	0.342944
525	C	0.920063	0.326068	0.342693
526	N	0.884487	0.308198	0.342156
527	C	0.866681	0.272746	0.341882
528	N	0.884885	0.255689	0.342092
529	C	0.636556	0.070766	0.383793
530	N	0.601134	0.053041	0.381651
531	C	0.583157	0.043867	0.675195
532	C	0.60251	0.053352	0.634472
533	N	0.637932	0.071062	0.636613
534	C	0.655912	0.080241	0.676403
535	H	0.648609	0.076927	0.414723
536	H	0.590457	0.047185	0.603541
537	C	0.94787	0.07034	0.383759
538	N	0.965598	0.052653	0.381631
539	C	0.974755	0.043829	0.675178
540	C	0.965243	0.053662	0.634448
541	N	0.947528	0.071361	0.636579
542	C	0.938367	0.080182	0.676366
543	H	0.941721	0.076249	0.414686
544	H	0.971393	0.047757	0.603521
545	C	0.948244	0.382076	0.383793
546	N	0.965943	0.417492	0.381651
547	C	0.974768	0.435468	0.675195
548	C	0.964921	0.416116	0.634472
549	N	0.947209	0.380697	0.636613
550	C	0.938388	0.362724	0.676403
551	H	0.942337	0.370023	0.414723
552	H	0.970826	0.428169	0.603541
553	C	0.783484	0.082392	0.63417
554	N	0.814925	0.084108	0.636579
555	C	0.830177	0.083062	0.342818
556	C	0.81309	0.082533	0.383511
557	N	0.783444	0.084402	0.38098
558	C	0.766941	0.083084	0.341447
559	H	0.774997	0.085837	0.603372
560	H	0.825209	0.086503	0.414255
561	C	0.936108	0.205482	0.634346
562	N	0.934395	0.235207	0.636626
563	C	0.935524	0.251682	0.342733
564	C	0.936197	0.235249	0.383484
565	N	0.934312	0.203728	0.381109
566	C	0.93549	0.188338	0.341705
567	H	0.932625	0.193489	0.603582
568	H	0.932327	0.243499	0.41421
569	C	0.813062	0.23512	0.63421
570	N	0.783346	0.203664	0.636616
571	C	0.767013	0.188419	0.342845
572	C	0.78352	0.205528	0.383559
573	N	0.815026	0.235198	0.381088
574	C	0.830202	0.251645	0.341542
575	H	0.825028	0.243616	0.603433
576	H	0.775326	0.193414	0.414299
577	C	0.993096	0.472122	0.675555
578	N	0.97559	0.490064	0.675511
579	C	0.993089	0.025514	0.675548
580	N	0.528542	0.043022	0.675511
581	C	0.546497	0.025531	0.675555
582	N	0.528548	0.49008	0.675517
583	C	0.745903	0.151942	0.676006
584	N	0.710449	0.13414	0.676332
585	C	0.69257	0.098564	0.676026
586	N	0.710418	0.080841	0.675446
587	C	0.745872	0.098475	0.675198
588	N	0.762961	0.13374	0.67546
589	C	0.866656	0.098435	0.675972
590	N	0.884462	0.080793	0.676247
591	C	0.920042	0.098507	0.675982
592	N	0.937767	0.134083	0.675497
593	C	0.920129	0.15189	0.675266
594	N	0.884861	0.133698	0.675521
595	C	0.920153	0.272772	0.675935
596	N	0.937789	0.308219	0.676274
597	C	0.920063	0.326068	0.676026
598	N	0.884487	0.308198	0.67549
599	C	0.866681	0.272746	0.675212
600	N	0.884885	0.255689	0.675426
601	C	0.636556	0.070766	0.717123
602	N	0.601134	0.053041	0.714985
603	C	0.583157	0.043867	0.008529
604	C	0.60251	0.053352	0.967805
605	N	0.637932	0.071062	0.969947
606	C	0.655912	0.080241	0.009738
607	H	0.648609	0.076927	0.748057
608	H	0.590457	0.047185	0.936875
609	C	0.94787	0.07034	0.717093
610	N	0.965598	0.052653	0.714961
611	C	0.974755	0.043829	0.008508
612	C	0.965243	0.053662	0.967782
613	N	0.947528	0.071361	0.969913
614	C	0.938367	0.080182	0.009699
615	H	0.941721	0.076249	0.748019
616	H	0.971393	0.047757	0.936855
617	C	0.948244	0.382076	0.717126
618	N	0.965943	0.417492	0.714985
619	C	0.974768	0.435468	0.008529
620	C	0.964921	0.416116	0.967805
621	N	0.947209	0.380697	0.969947
622	C	0.938388	0.362724	0.009739
623	H	0.942337	0.370023	0.748057
624	H	0.970826	0.428169	0.936872
625	C	0.783484	0.082392	0.9675
626	N	0.814925	0.084108	0.969913
627	C	0.830177	0.083062	0.676149
628	C	0.81309	0.082533	0.716845
629	N	0.783444	0.084402	0.714313
630	C	0.766941	0.083084	0.674778
631	H	0.774997	0.085837	0.936702
632	H	0.825209	0.086503	0.747585
633	C	0.936108	0.205482	0.967677
634	N	0.934395	0.235207	0.969957
635	C	0.935524	0.251682	0.676064
636	C	0.936197	0.235249	0.716818
637	N	0.934312	0.203728	0.714439
638	C	0.93549	0.188338	0.675039
639	H	0.932625	0.193489	0.936916
640	H	0.932327	0.243499	0.747544
641	C	0.813062	0.23512	0.967544
642	N	0.783346	0.203664	0.96995
643	C	0.767013	0.188419	0.676179
644	C	0.78352	0.205528	0.716892
645	N	0.815026	0.235198	0.714422
646	C	0.830202	0.251645	0.674876
647	H	0.825028	0.243616	0.936763
648	H	0.775326	0.193414	0.747632
649	C	0.993095	0.972123	0.008885
650	N	0.975592	0.990065	0.008841
651	C	0.993088	0.525514	0.008878
652	N	0.528542	0.543024	0.008844
653	C	0.546498	0.525532	0.008889
654	N	0.528549	0.990081	0.008851
655	C	0.745903	0.651942	0.00934
656	N	0.710448	0.634141	0.009665
657	C	0.692571	0.598563	0.009361
658	N	0.710419	0.580842	0.00878
659	C	0.745873	0.598475	0.008532
660	N	0.76296	0.633742	0.008794
661	C	0.866657	0.598435	0.009308
662	N	0.884461	0.580793	0.00958
663	C	0.920044	0.598508	0.009315
664	N	0.937769	0.634083	0.008831
665	C	0.92013	0.65189	0.0086
666	N	0.884862	0.633698	0.008851
667	C	0.920151	0.77277	0.00927
668	N	0.937789	0.80822	0.00961
669	C	0.920065	0.826069	0.00936
670	N	0.884485	0.808196	0.008824
671	C	0.866683	0.772747	0.008546
672	N	0.884886	0.75569	0.00876
673	C	0.636556	0.570767	0.050459
674	N	0.601135	0.553041	0.048319
675	C	0.583156	0.543868	0.341861
676	C	0.602511	0.553351	0.30114
677	N	0.637933	0.571062	0.30328
678	C	0.655911	0.580243	0.343069
679	H	0.648611	0.576928	0.08139
680	H	0.590458	0.547186	0.270208
681	C	0.947871	0.57034	0.050426
682	N	0.965599	0.552653	0.048297
683	C	0.974753	0.543829	0.341844
684	C	0.965243	0.553661	0.301116
685	N	0.947529	0.571362	0.303246
686	C	0.938369	0.580183	0.343032
687	H	0.941723	0.57625	0.081354
688	H	0.971394	0.547756	0.270188
689	C	0.948245	0.882077	0.05046
690	N	0.965943	0.917493	0.04832
691	C	0.97477	0.935469	0.341861
692	C	0.96492	0.916117	0.30114
693	N	0.947211	0.880698	0.303281
694	C	0.938388	0.862722	0.343073
695	H	0.942337	0.870022	0.081392
696	H	0.970826	0.928167	0.270208
697	C	0.783485	0.582393	0.300835
698	N	0.814926	0.584108	0.303247
699	C	0.830176	0.583063	0.009484
700	C	0.813089	0.582534	0.050179
701	N	0.783445	0.584402	0.047646
702	C	0.766942	0.583083	0.008111
703	H	0.774998	0.585838	0.270038
704	H	0.82521	0.586503	0.08092
705	C	0.936109	0.705483	0.301012
706	N	0.934396	0.735207	0.303292
707	C	0.935523	0.751682	0.009399
708	C	0.936195	0.735249	0.050152
709	N	0.934313	0.703729	0.047774
710	C	0.935489	0.688338	0.008369
711	H	0.932627	0.69349	0.27025
712	H	0.932328	0.743499	0.080879
713	C	0.813064	0.735121	0.300878
714	N	0.783345	0.703664	0.303283
715	C	0.767014	0.688419	0.009512
716	C	0.783519	0.705527	0.050227
717	N	0.815028	0.735199	0.047755
718	C	0.830203	0.751646	0.008206
719	H	0.825029	0.743617	0.270099
720	H	0.775327	0.693414	0.080966
721	C	0.993095	0.972123	0.342221
722	N	0.975592	0.990065	0.342177
723	C	0.993088	0.525514	0.342214
724	N	0.528542	0.543024	0.34218
725	C	0.546498	0.525532	0.342221
726	N	0.528549	0.990081	0.342184
727	C	0.745903	0.651942	0.342672
728	N	0.710448	0.634141	0.342998
729	C	0.692571	0.598563	0.342696
730	N	0.710419	0.580842	0.342116
731	C	0.745873	0.598475	0.341868
732	N	0.76296	0.633742	0.342129
733	C	0.866657	0.598435	0.342642
734	N	0.884461	0.580793	0.342913
735	C	0.920044	0.598508	0.342648
736	N	0.937769	0.634083	0.342163
737	C	0.92013	0.65189	0.341933
738	N	0.884862	0.633698	0.342187
739	C	0.920151	0.77277	0.342604
740	N	0.937789	0.80822	0.342944
741	C	0.920065	0.826069	0.342693
742	N	0.884485	0.808196	0.342156
743	C	0.866683	0.772747	0.341882
744	N	0.884886	0.75569	0.342092
745	C	0.636556	0.570767	0.383793
746	N	0.601135	0.553041	0.381651
747	C	0.583156	0.543868	0.675195
748	C	0.602511	0.553351	0.634472
749	N	0.637933	0.571062	0.636613
750	C	0.655911	0.580243	0.676403
751	H	0.648611	0.576928	0.414723
752	H	0.590458	0.547186	0.603541
753	C	0.947871	0.57034	0.383759
754	N	0.965599	0.552653	0.381631
755	C	0.974753	0.543829	0.675178
756	C	0.965243	0.553661	0.634448
757	N	0.947529	0.571362	0.636579
758	C	0.938369	0.580183	0.676366
759	H	0.941723	0.57625	0.414686
760	H	0.971394	0.547756	0.603521
761	C	0.948245	0.882077	0.383793
762	N	0.965943	0.917493	0.381651
763	C	0.97477	0.935469	0.675195
764	C	0.96492	0.916117	0.634472
765	N	0.947211	0.880698	0.636613
766	C	0.938388	0.862722	0.676403
767	H	0.942337	0.870022	0.414723
768	H	0.970826	0.928167	0.603541
769	C	0.783485	0.582393	0.63417
770	N	0.814926	0.584108	0.636579
771	C	0.830176	0.583063	0.342818
772	C	0.813089	0.582534	0.383511
773	N	0.783445	0.584402	0.38098
774	C	0.766942	0.583083	0.341447
775	H	0.774998	0.585838	0.603372
776	H	0.82521	0.586503	0.414255
777	C	0.936109	0.705483	0.634346
778	N	0.934396	0.735207	0.636626
779	C	0.935523	0.751682	0.342733
780	C	0.936195	0.735249	0.383484
781	N	0.934313	0.703729	0.381109
782	C	0.935489	0.688338	0.341705
783	H	0.932627	0.69349	0.603582
784	H	0.932328	0.743499	0.41421
785	C	0.813064	0.735121	0.63421
786	N	0.783345	0.703664	0.636616
787	C	0.767014	0.688419	0.342845
788	C	0.783519	0.705527	0.383559
789	N	0.815028	0.735199	0.381088
790	C	0.830203	0.751646	0.341542
791	H	0.825029	0.743617	0.603433
792	H	0.775327	0.693414	0.414299
793	C	0.993095	0.972123	0.675555
794	N	0.975592	0.990065	0.675511
795	C	0.993088	0.525514	0.675548
796	N	0.528542	0.543024	0.675511
797	C	0.546498	0.525532	0.675555
798	N	0.528549	0.990081	0.675517
799	C	0.745903	0.651942	0.676006
800	N	0.710448	0.634141	0.676332
801	C	0.692571	0.598563	0.676026
802	N	0.710419	0.580842	0.675446
803	C	0.745873	0.598475	0.675198
804	N	0.76296	0.633742	0.67546
805	C	0.866657	0.598435	0.675972
806	N	0.884461	0.580793	0.676247
807	C	0.920044	0.598508	0.675982
808	N	0.937769	0.634083	0.675497
809	C	0.92013	0.65189	0.675266
810	N	0.884862	0.633698	0.675521
811	C	0.920151	0.77277	0.675935
812	N	0.937789	0.80822	0.676274
813	C	0.920065	0.826069	0.676026
814	N	0.884485	0.808196	0.67549
815	C	0.866683	0.772747	0.675212
816	N	0.884886	0.75569	0.675426
817	C	0.636556	0.570767	0.717123
818	N	0.601135	0.553041	0.714985
819	C	0.583156	0.543868	0.008529
820	C	0.602511	0.553351	0.967805
821	N	0.637933	0.571062	0.969947
822	C	0.655911	0.580243	0.009738
823	H	0.648611	0.576928	0.748057
824	H	0.590458	0.547186	0.936875
825	C	0.947871	0.57034	0.717093
826	N	0.965599	0.552653	0.714961
827	C	0.974753	0.543829	0.008508
828	C	0.965243	0.553661	0.967782
829	N	0.947529	0.571362	0.969913
830	C	0.938369	0.580183	0.009699
831	H	0.941723	0.57625	0.748019
832	H	0.971394	0.547756	0.936855
833	C	0.948245	0.882077	0.717126
834	N	0.965943	0.917493	0.714985
835	C	0.97477	0.935469	0.008529
836	C	0.96492	0.916117	0.967805
837	N	0.947211	0.880698	0.969947
838	C	0.938388	0.862722	0.009739
839	H	0.942337	0.870022	0.748057
840	H	0.970826	0.928167	0.936872
841	C	0.783485	0.582393	0.9675
842	N	0.814926	0.584108	0.969913
843	C	0.830176	0.583063	0.676149
844	C	0.813089	0.582534	0.716845
845	N	0.783445	0.584402	0.714313
846	C	0.766942	0.583083	0.674778
847	H	0.774998	0.585838	0.936702
848	H	0.82521	0.586503	0.747585
849	C	0.936109	0.705483	0.967677
850	N	0.934396	0.735207	0.969957
851	C	0.935523	0.751682	0.676064
852	C	0.936195	0.735249	0.716818
853	N	0.934313	0.703729	0.714439
854	C	0.935489	0.688338	0.675039
855	H	0.932627	0.69349	0.936916
856	H	0.932328	0.743499	0.747544
857	C	0.813064	0.735121	0.967544
858	N	0.783345	0.703664	0.96995
859	C	0.767014	0.688419	0.676179
860	C	0.783519	0.705527	0.716892
861	N	0.815028	0.735199	0.714422
862	C	0.830203	0.751646	0.674876
863	H	0.825029	0.743617	0.936763
864	H	0.775327	0.693414	0.747632
