data_C360H360N144O72_2018-02-15_10:33:56
#******************************************
#
# CIF file created by Zeo++
# Zeo++ is an open source package to
# analyze microporous materials
#
#*******************************************

_cell_length_a		43.3556   
_cell_length_b		43.3556   
_cell_length_c		30.0716   
_cell_angle_alpha		90   
_cell_angle_beta		90   
_cell_angle_gamma		120   

_symmetry_space_group_name_H-M		'P1'
_symmetry_Int_Tables_number		1
_symmetry_cell_setting		Monoclinic

loop_
_symmetry_equiv_pos_as_xyz
'+x,+y,+z'

loop_
_atom_site_label
_atom_site_type_symbol
_atom_site_fract_x
_atom_site_fract_y
_atom_site_fract_z
1	C	0.178319	0.309619	0.035751
2	N	0.14256	0.296519	0.035851
3	C	0.128917	0.318685	0.035765
4	N	0.151575	0.354446	0.035843
5	C	0.187387	0.36809	0.035739
6	N	0.200487	0.345431	0.035828
7	N	0.091676	0.304045	0.035146
8	H	0.085477	0.323434	0.042791
9	N	0.209989	0.405329	0.035112
10	H	0.23559	0.411526	0.042672
11	N	0.192958	0.287018	0.035128
12	H	0.173572	0.261431	0.042777
13	C	0.318105	0.187996	0.961869
14	N	0.353863	0.201097	0.961763
15	C	0.367507	0.178928	0.96185
16	N	0.344848	0.143169	0.961773
17	C	0.309036	0.129526	0.961879
18	N	0.295936	0.152184	0.961793
19	N	0.404746	0.193567	0.962468
20	H	0.410947	0.17418	0.954823
21	N	0.286432	0.092286	0.962508
22	H	0.260832	0.086088	0.954949
23	N	0.303465	0.210596	0.962488
24	H	0.322851	0.236184	0.95484
25	C	0.217841	0.235308	0.305094
26	C	0.236843	0.216886	0.308306
27	C	0.267408	0.230176	0.002449
28	C	0.278584	0.262309	0.025853
29	C	0.259581	0.28073	0.022641
30	C	0.229015	0.26744	0.328498
31	H	0.300797	0.272631	0.045537
32	O	0.224485	0.185595	0.285903
33	H	0.195627	0.224985	0.285411
34	O	0.271938	0.312022	0.045045
35	H	0.232799	0.191925	0.255046
36	H	0.263624	0.305691	0.075902
37	C	0.287576	0.210879	0.006161
38	H	0.268954	0.183744	0.017286
39	H	0.308669	0.222991	0.031242
40	C	0.208847	0.286736	0.324788
41	H	0.187754	0.274626	0.299708
42	H	0.227469	0.313873	0.313664
43	C	0.261613	0.481907	0.304985
44	C	0.280074	0.019333	0.308186
45	C	0.266887	0.036639	0.002442
46	C	0.234812	0.015709	0.025972
47	C	0.216352	0.478282	0.022774
48	C	0.229538	0.460976	0.328514
49	H	0.224563	0.027622	0.04574
50	O	0.311307	0.038238	0.285654
51	H	0.271861	0.469994	0.285214
52	O	0.185117	0.459381	0.045298
53	H	0.304898	0.040217	0.254836
54	H	0.191522	0.457394	0.076117
55	C	0.286228	0.076104	0.006146
56	H	0.313382	0.084591	0.017162
57	H	0.274192	0.085109	0.031303
58	C	0.210196	0.421511	0.324809
59	H	0.222231	0.412506	0.299651
60	H	0.183041	0.413026	0.313793
61	C	0.015094	0.279175	0.305088
62	C	0.477669	0.260179	0.308288
63	C	0.460381	0.229618	0.002436
64	C	0.481328	0.218439	0.025857
65	C	0.018754	0.237432	0.022654
66	C	0.036041	0.267994	0.328509
67	H	0.46943	0.196229	0.045547
68	O	0.458745	0.272541	0.285867
69	H	0.026992	0.301384	0.2854
70	O	0.037678	0.225075	0.04508
71	H	0.456766	0.264222	0.255013
72	H	0.039657	0.233396	0.075933
73	C	0.420917	0.209459	0.006138
74	H	0.412409	0.228089	0.017253
75	H	0.411926	0.188369	0.031224
76	C	0.075507	0.288156	0.324807
77	H	0.084497	0.309247	0.299722
78	H	0.084015	0.269526	0.313692
79	C	0.178319	0.309619	0.369085
80	N	0.14256	0.296519	0.369185
81	C	0.128917	0.318685	0.369098
82	N	0.151575	0.354446	0.369178
83	C	0.187387	0.36809	0.369072
84	N	0.200487	0.345431	0.369162
85	N	0.091676	0.304045	0.36848
86	H	0.085477	0.323434	0.376125
87	N	0.209989	0.405329	0.368447
88	H	0.23559	0.411526	0.376005
89	N	0.192958	0.287018	0.368463
90	H	0.173572	0.261431	0.376112
91	C	0.318105	0.187996	0.295201
92	N	0.353863	0.201097	0.295097
93	C	0.367507	0.178928	0.295181
94	N	0.344848	0.143169	0.295105
95	C	0.309036	0.129526	0.295213
96	N	0.295936	0.152184	0.295125
97	N	0.404746	0.193567	0.295799
98	H	0.410947	0.17418	0.288154
99	N	0.286432	0.092286	0.295841
100	H	0.260832	0.086088	0.288282
101	N	0.303465	0.210596	0.295822
102	H	0.322851	0.236184	0.288172
103	C	0.217841	0.235308	0.638429
104	C	0.236843	0.216886	0.641641
105	C	0.267408	0.230176	0.335785
106	C	0.278584	0.262309	0.359186
107	C	0.259581	0.28073	0.355976
108	C	0.229015	0.26744	0.661833
109	H	0.300797	0.272631	0.378872
110	O	0.224485	0.185595	0.619238
111	H	0.195627	0.224985	0.618746
112	O	0.271938	0.312022	0.37838
113	H	0.232799	0.191925	0.588381
114	H	0.263624	0.305691	0.409236
115	C	0.287576	0.210879	0.339496
116	H	0.268954	0.183744	0.350619
117	H	0.308669	0.222991	0.364576
118	C	0.208847	0.286736	0.658122
119	H	0.187754	0.274626	0.633041
120	H	0.227469	0.313873	0.646998
121	C	0.261613	0.481907	0.638319
122	C	0.280074	0.019333	0.641521
123	C	0.266887	0.036639	0.335775
124	C	0.234812	0.015709	0.359305
125	C	0.216352	0.478282	0.356106
126	C	0.229538	0.460976	0.661849
127	H	0.224563	0.027622	0.379075
128	O	0.311307	0.038238	0.618988
129	H	0.271861	0.469994	0.618549
130	O	0.185117	0.459381	0.378632
131	H	0.304898	0.040217	0.588169
132	H	0.191522	0.457394	0.409452
133	C	0.286228	0.076104	0.339479
134	H	0.313382	0.084591	0.350496
135	H	0.274192	0.085109	0.364636
136	C	0.210196	0.421511	0.658142
137	H	0.222231	0.412506	0.632985
138	H	0.183041	0.413026	0.647128
139	C	0.015094	0.279175	0.638422
140	C	0.477669	0.260179	0.641621
141	C	0.460381	0.229618	0.335771
142	C	0.481328	0.218439	0.359192
143	C	0.018754	0.237432	0.355986
144	C	0.036041	0.267994	0.661843
145	H	0.46943	0.196229	0.378882
146	O	0.458745	0.272541	0.619201
147	H	0.026992	0.301384	0.618732
148	O	0.037678	0.225075	0.378413
149	H	0.456766	0.264222	0.588348
150	H	0.039657	0.233396	0.409266
151	C	0.420917	0.209459	0.339473
152	H	0.412409	0.228089	0.350586
153	H	0.411926	0.188369	0.364556
154	C	0.075507	0.288156	0.658142
155	H	0.084497	0.309247	0.633055
156	H	0.084015	0.269526	0.647025
157	C	0.178319	0.309619	0.702419
158	N	0.14256	0.296519	0.702519
159	C	0.128917	0.318685	0.702432
160	N	0.151575	0.354446	0.702512
161	C	0.187387	0.36809	0.702406
162	N	0.200487	0.345431	0.702496
163	N	0.091676	0.304045	0.701814
164	H	0.085477	0.323434	0.709459
165	N	0.209989	0.405329	0.701781
166	H	0.23559	0.411526	0.709339
167	N	0.192958	0.287018	0.701797
168	H	0.173572	0.261431	0.709446
169	C	0.318105	0.187996	0.628536
170	N	0.353863	0.201097	0.628429
171	C	0.367507	0.178928	0.628516
172	N	0.344848	0.143169	0.628439
173	C	0.309036	0.129526	0.628546
174	N	0.295936	0.152184	0.628459
175	N	0.404746	0.193567	0.629134
176	H	0.410947	0.17418	0.621489
177	N	0.286432	0.092286	0.629174
178	H	0.260832	0.086088	0.621615
179	N	0.303465	0.210596	0.629154
180	H	0.322851	0.236184	0.621506
181	C	0.217841	0.235308	0.971763
182	C	0.236843	0.216886	0.974975
183	C	0.267408	0.230176	0.669119
184	C	0.278584	0.262309	0.692519
185	C	0.259581	0.28073	0.68931
186	C	0.229015	0.26744	0.995167
187	H	0.300797	0.272631	0.712206
188	O	0.224485	0.185595	0.952572
189	H	0.195627	0.224985	0.95208
190	O	0.271938	0.312022	0.711714
191	H	0.232799	0.191925	0.921715
192	H	0.263624	0.305691	0.74257
193	C	0.287576	0.210879	0.67283
194	H	0.268954	0.183744	0.683953
195	H	0.308669	0.222991	0.69791
196	C	0.208847	0.286736	0.991455
197	H	0.187754	0.274626	0.966375
198	H	0.227469	0.313873	0.980332
199	C	0.261613	0.481907	0.971653
200	C	0.280074	0.019333	0.974855
201	C	0.266887	0.036639	0.669109
202	C	0.234812	0.015709	0.692639
203	C	0.216352	0.478282	0.68944
204	C	0.229538	0.460976	0.995183
205	H	0.224563	0.027622	0.712409
206	O	0.311307	0.038238	0.952322
207	H	0.271861	0.469994	0.951883
208	O	0.185117	0.459381	0.711966
209	H	0.304898	0.040217	0.921503
210	H	0.191522	0.457394	0.742786
211	C	0.286228	0.076104	0.672813
212	H	0.313382	0.084591	0.68383
213	H	0.274192	0.085109	0.69797
214	C	0.210196	0.421511	0.991475
215	H	0.222231	0.412506	0.966319
216	H	0.183041	0.413026	0.980462
217	C	0.015094	0.279175	0.971756
218	C	0.477669	0.260179	0.974955
219	C	0.460381	0.229618	0.669105
220	C	0.481328	0.218439	0.692526
221	C	0.018754	0.237432	0.68932
222	C	0.036041	0.267994	0.995177
223	H	0.46943	0.196229	0.712216
224	O	0.458745	0.272541	0.952535
225	H	0.026992	0.301384	0.952066
226	O	0.037678	0.225075	0.711747
227	H	0.456766	0.264222	0.921682
228	H	0.039657	0.233396	0.7426
229	C	0.420917	0.209459	0.672806
230	H	0.412409	0.228089	0.68392
231	H	0.411926	0.188369	0.69789
232	C	0.075507	0.288156	0.991475
233	H	0.084497	0.309247	0.966389
234	H	0.084015	0.269526	0.980359
235	C	0.178318	0.809619	0.035752
236	N	0.14256	0.796518	0.035851
237	C	0.128917	0.818685	0.035765
238	N	0.151574	0.854445	0.035843
239	C	0.187387	0.868089	0.035739
240	N	0.200487	0.84543	0.035828
241	N	0.091678	0.804047	0.035146
242	H	0.085477	0.823433	0.042791
243	N	0.209989	0.905328	0.035112
244	H	0.23559	0.911525	0.042672
245	N	0.192958	0.787018	0.035128
246	H	0.173572	0.761431	0.042777
247	C	0.318105	0.687995	0.961869
248	N	0.353863	0.701096	0.961763
249	C	0.367505	0.678927	0.96185
250	N	0.344848	0.643169	0.961773
251	C	0.309036	0.629525	0.961879
252	N	0.295936	0.652184	0.961793
253	N	0.404745	0.693567	0.962468
254	H	0.410947	0.674181	0.954823
255	N	0.286434	0.592286	0.962508
256	H	0.260833	0.586089	0.954949
257	N	0.303466	0.710596	0.962488
258	H	0.322851	0.736183	0.95484
259	C	0.21784	0.735307	0.305094
260	C	0.236842	0.716884	0.308307
261	C	0.267408	0.730174	0.002449
262	C	0.278584	0.76231	0.025853
263	C	0.259582	0.780732	0.022641
264	C	0.229016	0.767442	0.328498
265	H	0.300796	0.77263	0.045537
266	O	0.224485	0.685593	0.285903
267	H	0.195628	0.724986	0.285411
268	O	0.271938	0.812021	0.045045
269	H	0.232799	0.691924	0.255046
270	H	0.263624	0.80569	0.075902
271	C	0.287576	0.710879	0.006161
272	H	0.268954	0.683745	0.017286
273	H	0.30867	0.722991	0.031242
274	C	0.208846	0.786735	0.324788
275	H	0.187754	0.774625	0.299708
276	H	0.227469	0.813872	0.313664
277	C	0.261613	0.981906	0.304985
278	C	0.280075	0.519332	0.308186
279	C	0.266887	0.536639	0.002442
280	C	0.234812	0.515708	0.025972
281	C	0.216353	0.978282	0.022774
282	C	0.229539	0.960978	0.328514
283	H	0.224562	0.527621	0.04574
284	O	0.311307	0.538237	0.285655
285	H	0.271861	0.969993	0.285214
286	O	0.185117	0.95938	0.045299
287	H	0.304897	0.540215	0.254836
288	H	0.191523	0.957393	0.076117
289	C	0.286227	0.576104	0.006146
290	H	0.313382	0.584589	0.017162
291	H	0.274192	0.585108	0.031303
292	C	0.210197	0.92151	0.324809
293	H	0.222231	0.912508	0.299651
294	H	0.183043	0.913028	0.313793
295	C	0.015093	0.779174	0.305088
296	C	0.477668	0.760179	0.308288
297	C	0.460381	0.729618	0.002436
298	C	0.481328	0.718437	0.025857
299	C	0.018754	0.737432	0.022654
300	C	0.036043	0.767996	0.328509
301	H	0.469431	0.69623	0.045547
302	O	0.458745	0.77254	0.285867
303	H	0.026992	0.801384	0.2854
304	O	0.037677	0.725074	0.04508
305	H	0.456766	0.764222	0.255013
306	H	0.039657	0.733397	0.075933
307	C	0.420916	0.709459	0.006138
308	H	0.412409	0.728089	0.017253
309	H	0.411926	0.688368	0.031224
310	C	0.075507	0.788155	0.324807
311	H	0.084496	0.809246	0.299722
312	H	0.084015	0.769525	0.313692
313	C	0.178318	0.809619	0.369085
314	N	0.14256	0.796518	0.369185
315	C	0.128917	0.818685	0.369098
316	N	0.151574	0.854445	0.369178
317	C	0.187387	0.868089	0.369072
318	N	0.200487	0.84543	0.369162
319	N	0.091678	0.804047	0.36848
320	H	0.085477	0.823433	0.376125
321	N	0.209989	0.905328	0.368447
322	H	0.23559	0.911525	0.376005
323	N	0.192958	0.787018	0.368463
324	H	0.173572	0.761431	0.376112
325	C	0.318105	0.687995	0.295201
326	N	0.353863	0.701096	0.295097
327	C	0.367505	0.678927	0.295181
328	N	0.344848	0.643169	0.295105
329	C	0.309036	0.629525	0.295213
330	N	0.295936	0.652184	0.295125
331	N	0.404745	0.693567	0.295799
332	H	0.410947	0.674181	0.288154
333	N	0.286434	0.592286	0.295841
334	H	0.260833	0.586089	0.288282
335	N	0.303466	0.710596	0.295822
336	H	0.322851	0.736183	0.288172
337	C	0.21784	0.735307	0.638429
338	C	0.236842	0.716884	0.641641
339	C	0.267408	0.730174	0.335785
340	C	0.278584	0.76231	0.359186
341	C	0.259582	0.780732	0.355976
342	C	0.229016	0.767442	0.661833
343	H	0.300796	0.77263	0.378872
344	O	0.224485	0.685593	0.619238
345	H	0.195628	0.724986	0.618746
346	O	0.271938	0.812021	0.37838
347	H	0.232799	0.691924	0.588381
348	H	0.263624	0.80569	0.409236
349	C	0.287576	0.710879	0.339496
350	H	0.268954	0.683745	0.350619
351	H	0.30867	0.722991	0.364576
352	C	0.208846	0.786735	0.658122
353	H	0.187754	0.774625	0.633041
354	H	0.227469	0.813872	0.646998
355	C	0.261613	0.981906	0.638319
356	C	0.280075	0.519332	0.641521
357	C	0.266887	0.536639	0.335775
358	C	0.234812	0.515708	0.359305
359	C	0.216353	0.978282	0.356106
360	C	0.229539	0.960978	0.661849
361	H	0.224562	0.527621	0.379075
362	O	0.311307	0.538237	0.618988
363	H	0.271861	0.969993	0.618549
364	O	0.185117	0.95938	0.378632
365	H	0.304897	0.540215	0.588169
366	H	0.191523	0.957393	0.409452
367	C	0.286227	0.576104	0.339479
368	H	0.313382	0.584589	0.350496
369	H	0.274192	0.585108	0.364636
370	C	0.210197	0.92151	0.658142
371	H	0.222231	0.912508	0.632985
372	H	0.183043	0.913028	0.647128
373	C	0.015093	0.779174	0.638422
374	C	0.477668	0.760179	0.641621
375	C	0.460381	0.729618	0.335771
376	C	0.481328	0.718437	0.359192
377	C	0.018754	0.737432	0.355986
378	C	0.036043	0.767996	0.661843
379	H	0.469431	0.69623	0.378882
380	O	0.458745	0.77254	0.619201
381	H	0.026992	0.801384	0.618732
382	O	0.037677	0.725074	0.378413
383	H	0.456766	0.764222	0.588348
384	H	0.039657	0.733397	0.409266
385	C	0.420916	0.709459	0.339473
386	H	0.412409	0.728089	0.350586
387	H	0.411926	0.688368	0.364556
388	C	0.075507	0.788155	0.658142
389	H	0.084496	0.809246	0.633055
390	H	0.084015	0.769525	0.647025
391	C	0.178318	0.809619	0.702419
392	N	0.14256	0.796518	0.702519
393	C	0.128917	0.818685	0.702432
394	N	0.151574	0.854445	0.702512
395	C	0.187387	0.868089	0.702406
396	N	0.200487	0.84543	0.702496
397	N	0.091678	0.804047	0.701814
398	H	0.085477	0.823433	0.709459
399	N	0.209989	0.905328	0.701781
400	H	0.23559	0.911525	0.709339
401	N	0.192958	0.787018	0.701797
402	H	0.173572	0.761431	0.709446
403	C	0.318105	0.687995	0.628536
404	N	0.353863	0.701096	0.628429
405	C	0.367505	0.678927	0.628516
406	N	0.344848	0.643169	0.628439
407	C	0.309036	0.629525	0.628546
408	N	0.295936	0.652184	0.628459
409	N	0.404745	0.693567	0.629134
410	H	0.410947	0.674181	0.621489
411	N	0.286434	0.592286	0.629174
412	H	0.260833	0.586089	0.621615
413	N	0.303466	0.710596	0.629154
414	H	0.322851	0.736183	0.621506
415	C	0.21784	0.735307	0.971763
416	C	0.236842	0.716884	0.974975
417	C	0.267408	0.730174	0.669119
418	C	0.278584	0.76231	0.692519
419	C	0.259582	0.780732	0.68931
420	C	0.229016	0.767442	0.995167
421	H	0.300796	0.77263	0.712206
422	O	0.224485	0.685593	0.952572
423	H	0.195628	0.724986	0.95208
424	O	0.271938	0.812021	0.711714
425	H	0.232799	0.691924	0.921715
426	H	0.263624	0.80569	0.74257
427	C	0.287576	0.710879	0.67283
428	H	0.268954	0.683745	0.683953
429	H	0.30867	0.722991	0.69791
430	C	0.208846	0.786735	0.991455
431	H	0.187754	0.774625	0.966375
432	H	0.227469	0.813872	0.980332
433	C	0.261613	0.981906	0.971653
434	C	0.280075	0.519332	0.974855
435	C	0.266887	0.536639	0.669109
436	C	0.234812	0.515708	0.692639
437	C	0.216353	0.978282	0.68944
438	C	0.229539	0.960978	0.995183
439	H	0.224562	0.527621	0.712409
440	O	0.311307	0.538237	0.952322
441	H	0.271861	0.969993	0.951883
442	O	0.185117	0.95938	0.711966
443	H	0.304897	0.540215	0.921503
444	H	0.191523	0.957393	0.742786
445	C	0.286227	0.576104	0.672813
446	H	0.313382	0.584589	0.68383
447	H	0.274192	0.585108	0.69797
448	C	0.210197	0.92151	0.991475
449	H	0.222231	0.912508	0.966319
450	H	0.183043	0.913028	0.980462
451	C	0.015093	0.779174	0.971756
452	C	0.477668	0.760179	0.974955
453	C	0.460381	0.729618	0.669105
454	C	0.481328	0.718437	0.692526
455	C	0.018754	0.737432	0.68932
456	C	0.036043	0.767996	0.995177
457	H	0.469431	0.69623	0.712216
458	O	0.458745	0.77254	0.952535
459	H	0.026992	0.801384	0.952066
460	O	0.037677	0.725074	0.711747
461	H	0.456766	0.764222	0.921682
462	H	0.039657	0.733397	0.7426
463	C	0.420916	0.709459	0.672806
464	H	0.412409	0.728089	0.68392
465	H	0.411926	0.688368	0.69789
466	C	0.075507	0.788155	0.991475
467	H	0.084496	0.809246	0.966389
468	H	0.084015	0.769525	0.980359
469	C	0.678318	0.309619	0.035751
470	N	0.64256	0.296519	0.035851
471	C	0.628915	0.318685	0.035765
472	N	0.651575	0.354446	0.035843
473	C	0.687387	0.36809	0.035739
474	N	0.700486	0.345431	0.035828
475	N	0.591675	0.304045	0.035146
476	H	0.585475	0.323434	0.042791
477	N	0.70999	0.405329	0.035112
478	H	0.735591	0.411526	0.042672
479	N	0.692958	0.287018	0.035128
480	H	0.673573	0.261431	0.042777
481	C	0.818105	0.187996	0.961869
482	N	0.853863	0.201097	0.961763
483	C	0.867507	0.178928	0.96185
484	N	0.844848	0.143169	0.961773
485	C	0.809036	0.129526	0.961879
486	N	0.795935	0.152184	0.961793
487	N	0.904744	0.193567	0.962468
488	H	0.910947	0.17418	0.954823
489	N	0.786432	0.092286	0.962508
490	H	0.760831	0.086088	0.954949
491	N	0.803464	0.210596	0.962488
492	H	0.822852	0.236184	0.95484
493	C	0.717839	0.235308	0.305094
494	C	0.736842	0.216886	0.308306
495	C	0.767407	0.230176	0.002449
496	C	0.778584	0.262309	0.025853
497	C	0.759582	0.28073	0.022641
498	C	0.729016	0.26744	0.328498
499	H	0.800797	0.272631	0.045537
500	O	0.724485	0.185595	0.285903
501	H	0.695626	0.224985	0.285411
502	O	0.771938	0.312022	0.045045
503	H	0.732798	0.191925	0.255046
504	H	0.763625	0.305691	0.075902
505	C	0.787575	0.210879	0.006161
506	H	0.768954	0.183744	0.017286
507	H	0.808669	0.222991	0.031242
508	C	0.708845	0.286736	0.324788
509	H	0.687754	0.274626	0.299708
510	H	0.727469	0.313873	0.313664
511	C	0.761613	0.481907	0.304985
512	C	0.780074	0.019333	0.308186
513	C	0.766887	0.036639	0.002442
514	C	0.734813	0.015709	0.025972
515	C	0.716351	0.478282	0.022774
516	C	0.729538	0.460976	0.328514
517	H	0.724564	0.027622	0.04574
518	O	0.811307	0.038238	0.285654
519	H	0.771862	0.469994	0.285214
520	O	0.685117	0.459381	0.045298
521	H	0.804898	0.040217	0.254836
522	H	0.691521	0.457394	0.076117
523	C	0.786228	0.076104	0.006146
524	H	0.813382	0.084591	0.017162
525	H	0.774192	0.085109	0.031303
526	C	0.710195	0.421511	0.324809
527	H	0.72223	0.412506	0.299651
528	H	0.683042	0.413026	0.313793
529	C	0.515094	0.279175	0.305088
530	C	0.977669	0.260179	0.308288
531	C	0.960381	0.229618	0.002436
532	C	0.981328	0.218439	0.025857
533	C	0.518755	0.237432	0.022654
534	C	0.53604	0.267994	0.328509
535	H	0.96943	0.196229	0.045547
536	O	0.958745	0.272541	0.285867
537	H	0.526992	0.301384	0.2854
538	O	0.537678	0.225075	0.04508
539	H	0.956766	0.264222	0.255013
540	H	0.539656	0.233396	0.075933
541	C	0.920915	0.209459	0.006138
542	H	0.912409	0.228089	0.017253
543	H	0.911926	0.188369	0.031224
544	C	0.575508	0.288156	0.324807
545	H	0.584496	0.309247	0.299722
546	H	0.584015	0.269526	0.313692
547	C	0.678318	0.309619	0.369085
548	N	0.64256	0.296519	0.369185
549	C	0.628915	0.318685	0.369098
550	N	0.651575	0.354446	0.369178
551	C	0.687387	0.36809	0.369072
552	N	0.700486	0.345431	0.369162
553	N	0.591675	0.304045	0.36848
554	H	0.585475	0.323434	0.376125
555	N	0.70999	0.405329	0.368447
556	H	0.735591	0.411526	0.376005
557	N	0.692958	0.287018	0.368463
558	H	0.673573	0.261431	0.376112
559	C	0.818105	0.187996	0.295201
560	N	0.853863	0.201097	0.295097
561	C	0.867507	0.178928	0.295181
562	N	0.844848	0.143169	0.295105
563	C	0.809036	0.129526	0.295213
564	N	0.795935	0.152184	0.295125
565	N	0.904744	0.193567	0.295799
566	H	0.910947	0.17418	0.288154
567	N	0.786432	0.092286	0.295841
568	H	0.760831	0.086088	0.288282
569	N	0.803464	0.210596	0.295822
570	H	0.822852	0.236184	0.288172
571	C	0.717839	0.235308	0.638429
572	C	0.736842	0.216886	0.641641
573	C	0.767407	0.230176	0.335785
574	C	0.778584	0.262309	0.359186
575	C	0.759582	0.28073	0.355976
576	C	0.729016	0.26744	0.661833
577	H	0.800797	0.272631	0.378872
578	O	0.724485	0.185595	0.619238
579	H	0.695626	0.224985	0.618746
580	O	0.771938	0.312022	0.37838
581	H	0.732798	0.191925	0.588381
582	H	0.763625	0.305691	0.409236
583	C	0.787575	0.210879	0.339496
584	H	0.768954	0.183744	0.350619
585	H	0.808669	0.222991	0.364576
586	C	0.708845	0.286736	0.658122
587	H	0.687754	0.274626	0.633041
588	H	0.727469	0.313873	0.646998
589	C	0.761613	0.481907	0.638319
590	C	0.780074	0.019333	0.641521
591	C	0.766887	0.036639	0.335775
592	C	0.734813	0.015709	0.359305
593	C	0.716351	0.478282	0.356106
594	C	0.729538	0.460976	0.661849
595	H	0.724564	0.027622	0.379075
596	O	0.811307	0.038238	0.618988
597	H	0.771862	0.469994	0.618549
598	O	0.685117	0.459381	0.378632
599	H	0.804898	0.040217	0.588169
600	H	0.691521	0.457394	0.409452
601	C	0.786228	0.076104	0.339479
602	H	0.813382	0.084591	0.350496
603	H	0.774192	0.085109	0.364636
604	C	0.710195	0.421511	0.658142
605	H	0.72223	0.412506	0.632985
606	H	0.683042	0.413026	0.647128
607	C	0.515094	0.279175	0.638422
608	C	0.977669	0.260179	0.641621
609	C	0.960381	0.229618	0.335771
610	C	0.981328	0.218439	0.359192
611	C	0.518755	0.237432	0.355986
612	C	0.53604	0.267994	0.661843
613	H	0.96943	0.196229	0.378882
614	O	0.958745	0.272541	0.619201
615	H	0.526992	0.301384	0.618732
616	O	0.537678	0.225075	0.378413
617	H	0.956766	0.264222	0.588348
618	H	0.539656	0.233396	0.409266
619	C	0.920915	0.209459	0.339473
620	H	0.912409	0.228089	0.350586
621	H	0.911926	0.188369	0.364556
622	C	0.575508	0.288156	0.658142
623	H	0.584496	0.309247	0.633055
624	H	0.584015	0.269526	0.647025
625	C	0.678318	0.309619	0.702419
626	N	0.64256	0.296519	0.702519
627	C	0.628915	0.318685	0.702432
628	N	0.651575	0.354446	0.702512
629	C	0.687387	0.36809	0.702406
630	N	0.700486	0.345431	0.702496
631	N	0.591675	0.304045	0.701814
632	H	0.585475	0.323434	0.709459
633	N	0.70999	0.405329	0.701781
634	H	0.735591	0.411526	0.709339
635	N	0.692958	0.287018	0.701797
636	H	0.673573	0.261431	0.709446
637	C	0.818105	0.187996	0.628536
638	N	0.853863	0.201097	0.628429
639	C	0.867507	0.178928	0.628516
640	N	0.844848	0.143169	0.628439
641	C	0.809036	0.129526	0.628546
642	N	0.795935	0.152184	0.628459
643	N	0.904744	0.193567	0.629134
644	H	0.910947	0.17418	0.621489
645	N	0.786432	0.092286	0.629174
646	H	0.760831	0.086088	0.621615
647	N	0.803464	0.210596	0.629154
648	H	0.822852	0.236184	0.621506
649	C	0.717839	0.235308	0.971763
650	C	0.736842	0.216886	0.974975
651	C	0.767407	0.230176	0.669119
652	C	0.778584	0.262309	0.692519
653	C	0.759582	0.28073	0.68931
654	C	0.729016	0.26744	0.995167
655	H	0.800797	0.272631	0.712206
656	O	0.724485	0.185595	0.952572
657	H	0.695626	0.224985	0.95208
658	O	0.771938	0.312022	0.711714
659	H	0.732798	0.191925	0.921715
660	H	0.763625	0.305691	0.74257
661	C	0.787575	0.210879	0.67283
662	H	0.768954	0.183744	0.683953
663	H	0.808669	0.222991	0.69791
664	C	0.708845	0.286736	0.991455
665	H	0.687754	0.274626	0.966375
666	H	0.727469	0.313873	0.980332
667	C	0.761613	0.481907	0.971653
668	C	0.780074	0.019333	0.974855
669	C	0.766887	0.036639	0.669109
670	C	0.734813	0.015709	0.692639
671	C	0.716351	0.478282	0.68944
672	C	0.729538	0.460976	0.995183
673	H	0.724564	0.027622	0.712409
674	O	0.811307	0.038238	0.952322
675	H	0.771862	0.469994	0.951883
676	O	0.685117	0.459381	0.711966
677	H	0.804898	0.040217	0.921503
678	H	0.691521	0.457394	0.742786
679	C	0.786228	0.076104	0.672813
680	H	0.813382	0.084591	0.68383
681	H	0.774192	0.085109	0.69797
682	C	0.710195	0.421511	0.991475
683	H	0.72223	0.412506	0.966319
684	H	0.683042	0.413026	0.980462
685	C	0.515094	0.279175	0.971756
686	C	0.977669	0.260179	0.974955
687	C	0.960381	0.229618	0.669105
688	C	0.981328	0.218439	0.692526
689	C	0.518755	0.237432	0.68932
690	C	0.53604	0.267994	0.995177
691	H	0.96943	0.196229	0.712216
692	O	0.958745	0.272541	0.952535
693	H	0.526992	0.301384	0.952066
694	O	0.537678	0.225075	0.711747
695	H	0.956766	0.264222	0.921682
696	H	0.539656	0.233396	0.7426
697	C	0.920915	0.209459	0.672806
698	H	0.912409	0.228089	0.68392
699	H	0.911926	0.188369	0.69789
700	C	0.575508	0.288156	0.991475
701	H	0.584496	0.309247	0.966389
702	H	0.584015	0.269526	0.980359
703	C	0.678317	0.809619	0.035752
704	N	0.64256	0.796518	0.035851
705	C	0.628916	0.818685	0.035765
706	N	0.651574	0.854445	0.035843
707	C	0.687387	0.868089	0.035739
708	N	0.700485	0.84543	0.035828
709	N	0.591677	0.804047	0.035146
710	H	0.585476	0.823433	0.042791
711	N	0.709989	0.905328	0.035112
712	H	0.73559	0.911525	0.042672
713	N	0.692958	0.787018	0.035128
714	H	0.673573	0.761431	0.042777
715	C	0.818105	0.687995	0.961869
716	N	0.853863	0.701096	0.961763
717	C	0.867506	0.678927	0.96185
718	N	0.844848	0.643169	0.961773
719	C	0.809035	0.629525	0.961879
720	N	0.795937	0.652184	0.961793
721	N	0.904746	0.693567	0.962468
722	H	0.910947	0.674181	0.954823
723	N	0.786433	0.592286	0.962508
724	H	0.760832	0.586089	0.954949
725	N	0.803466	0.710596	0.962488
726	H	0.822852	0.736183	0.95484
727	C	0.717839	0.735307	0.305094
728	C	0.736841	0.716884	0.308307
729	C	0.767407	0.730174	0.002449
730	C	0.778585	0.76231	0.025853
731	C	0.759583	0.780732	0.022641
732	C	0.729017	0.767442	0.328498
733	H	0.800797	0.77263	0.045537
734	O	0.724484	0.685593	0.285903
735	H	0.695627	0.724986	0.285411
736	O	0.771938	0.812021	0.045045
737	H	0.732798	0.691924	0.255046
738	H	0.763624	0.80569	0.075902
739	C	0.787575	0.710879	0.006161
740	H	0.768954	0.683745	0.017286
741	H	0.80867	0.722991	0.031242
742	C	0.708847	0.786735	0.324788
743	H	0.687754	0.774625	0.299708
744	H	0.727469	0.813872	0.313664
745	C	0.761613	0.981906	0.304985
746	C	0.780074	0.519332	0.308186
747	C	0.766887	0.536639	0.002442
748	C	0.734812	0.515708	0.025972
749	C	0.716351	0.978282	0.022774
750	C	0.729539	0.960978	0.328514
751	H	0.724563	0.527621	0.04574
752	O	0.811307	0.538237	0.285655
753	H	0.771862	0.969993	0.285214
754	O	0.685116	0.95938	0.045299
755	H	0.804897	0.540215	0.254836
756	H	0.691521	0.957393	0.076117
757	C	0.786227	0.576104	0.006146
758	H	0.813381	0.584589	0.017162
759	H	0.774192	0.585108	0.031303
760	C	0.710195	0.92151	0.324809
761	H	0.722231	0.912508	0.299651
762	H	0.683042	0.913028	0.313793
763	C	0.515093	0.779174	0.305088
764	C	0.977669	0.760179	0.308288
765	C	0.960381	0.729618	0.002436
766	C	0.981327	0.718437	0.025857
767	C	0.518754	0.737432	0.022654
768	C	0.536042	0.767996	0.328509
769	H	0.969431	0.69623	0.045547
770	O	0.958745	0.77254	0.285867
771	H	0.526992	0.801384	0.2854
772	O	0.537678	0.725074	0.04508
773	H	0.956766	0.764222	0.255013
774	H	0.539657	0.733397	0.075933
775	C	0.920917	0.709459	0.006138
776	H	0.91241	0.728089	0.017253
777	H	0.911926	0.688368	0.031224
778	C	0.575507	0.788155	0.324807
779	H	0.584497	0.809246	0.299722
780	H	0.584014	0.769525	0.313692
781	C	0.678317	0.809619	0.369085
782	N	0.64256	0.796518	0.369185
783	C	0.628916	0.818685	0.369098
784	N	0.651574	0.854445	0.369178
785	C	0.687387	0.868089	0.369072
786	N	0.700485	0.84543	0.369162
787	N	0.591677	0.804047	0.36848
788	H	0.585476	0.823433	0.376125
789	N	0.709989	0.905328	0.368447
790	H	0.73559	0.911525	0.376005
791	N	0.692958	0.787018	0.368463
792	H	0.673573	0.761431	0.376112
793	C	0.818105	0.687995	0.295201
794	N	0.853863	0.701096	0.295097
795	C	0.867506	0.678927	0.295181
796	N	0.844848	0.643169	0.295105
797	C	0.809035	0.629525	0.295213
798	N	0.795937	0.652184	0.295125
799	N	0.904746	0.693567	0.295799
800	H	0.910947	0.674181	0.288154
801	N	0.786433	0.592286	0.295841
802	H	0.760832	0.586089	0.288282
803	N	0.803466	0.710596	0.295822
804	H	0.822852	0.736183	0.288172
805	C	0.717839	0.735307	0.638429
806	C	0.736841	0.716884	0.641641
807	C	0.767407	0.730174	0.335785
808	C	0.778585	0.76231	0.359186
809	C	0.759583	0.780732	0.355976
810	C	0.729017	0.767442	0.661833
811	H	0.800797	0.77263	0.378872
812	O	0.724484	0.685593	0.619238
813	H	0.695627	0.724986	0.618746
814	O	0.771938	0.812021	0.37838
815	H	0.732798	0.691924	0.588381
816	H	0.763624	0.80569	0.409236
817	C	0.787575	0.710879	0.339496
818	H	0.768954	0.683745	0.350619
819	H	0.80867	0.722991	0.364576
820	C	0.708847	0.786735	0.658122
821	H	0.687754	0.774625	0.633041
822	H	0.727469	0.813872	0.646998
823	C	0.761613	0.981906	0.638319
824	C	0.780074	0.519332	0.641521
825	C	0.766887	0.536639	0.335775
826	C	0.734812	0.515708	0.359305
827	C	0.716351	0.978282	0.356106
828	C	0.729539	0.960978	0.661849
829	H	0.724563	0.527621	0.379075
830	O	0.811307	0.538237	0.618988
831	H	0.771862	0.969993	0.618549
832	O	0.685116	0.95938	0.378632
833	H	0.804897	0.540215	0.588169
834	H	0.691521	0.957393	0.409452
835	C	0.786227	0.576104	0.339479
836	H	0.813381	0.584589	0.350496
837	H	0.774192	0.585108	0.364636
838	C	0.710195	0.92151	0.658142
839	H	0.722231	0.912508	0.632985
840	H	0.683042	0.913028	0.647128
841	C	0.515093	0.779174	0.638422
842	C	0.977669	0.760179	0.641621
843	C	0.960381	0.729618	0.335771
844	C	0.981327	0.718437	0.359192
845	C	0.518754	0.737432	0.355986
846	C	0.536042	0.767996	0.661843
847	H	0.969431	0.69623	0.378882
848	O	0.958745	0.77254	0.619201
849	H	0.526992	0.801384	0.618732
850	O	0.537678	0.725074	0.378413
851	H	0.956766	0.764222	0.588348
852	H	0.539657	0.733397	0.409266
853	C	0.920917	0.709459	0.339473
854	H	0.91241	0.728089	0.350586
855	H	0.911926	0.688368	0.364556
856	C	0.575507	0.788155	0.658142
857	H	0.584497	0.809246	0.633055
858	H	0.584014	0.769525	0.647025
859	C	0.678317	0.809619	0.702419
860	N	0.64256	0.796518	0.702519
861	C	0.628916	0.818685	0.702432
862	N	0.651574	0.854445	0.702512
863	C	0.687387	0.868089	0.702406
864	N	0.700485	0.84543	0.702496
865	N	0.591677	0.804047	0.701814
866	H	0.585476	0.823433	0.709459
867	N	0.709989	0.905328	0.701781
868	H	0.73559	0.911525	0.709339
869	N	0.692958	0.787018	0.701797
870	H	0.673573	0.761431	0.709446
871	C	0.818105	0.687995	0.628536
872	N	0.853863	0.701096	0.628429
873	C	0.867506	0.678927	0.628516
874	N	0.844848	0.643169	0.628439
875	C	0.809035	0.629525	0.628546
876	N	0.795937	0.652184	0.628459
877	N	0.904746	0.693567	0.629134
878	H	0.910947	0.674181	0.621489
879	N	0.786433	0.592286	0.629174
880	H	0.760832	0.586089	0.621615
881	N	0.803466	0.710596	0.629154
882	H	0.822852	0.736183	0.621506
883	C	0.717839	0.735307	0.971763
884	C	0.736841	0.716884	0.974975
885	C	0.767407	0.730174	0.669119
886	C	0.778585	0.76231	0.692519
887	C	0.759583	0.780732	0.68931
888	C	0.729017	0.767442	0.995167
889	H	0.800797	0.77263	0.712206
890	O	0.724484	0.685593	0.952572
891	H	0.695627	0.724986	0.95208
892	O	0.771938	0.812021	0.711714
893	H	0.732798	0.691924	0.921715
894	H	0.763624	0.80569	0.74257
895	C	0.787575	0.710879	0.67283
896	H	0.768954	0.683745	0.683953
897	H	0.80867	0.722991	0.69791
898	C	0.708847	0.786735	0.991455
899	H	0.687754	0.774625	0.966375
900	H	0.727469	0.813872	0.980332
901	C	0.761613	0.981906	0.971653
902	C	0.780074	0.519332	0.974855
903	C	0.766887	0.536639	0.669109
904	C	0.734812	0.515708	0.692639
905	C	0.716351	0.978282	0.68944
906	C	0.729539	0.960978	0.995183
907	H	0.724563	0.527621	0.712409
908	O	0.811307	0.538237	0.952322
909	H	0.771862	0.969993	0.951883
910	O	0.685116	0.95938	0.711966
911	H	0.804897	0.540215	0.921503
912	H	0.691521	0.957393	0.742786
913	C	0.786227	0.576104	0.672813
914	H	0.813381	0.584589	0.68383
915	H	0.774192	0.585108	0.69797
916	C	0.710195	0.92151	0.991475
917	H	0.722231	0.912508	0.966319
918	H	0.683042	0.913028	0.980462
919	C	0.515093	0.779174	0.971756
920	C	0.977669	0.760179	0.974955
921	C	0.960381	0.729618	0.669105
922	C	0.981327	0.718437	0.692526
923	C	0.518754	0.737432	0.68932
924	C	0.536042	0.767996	0.995177
925	H	0.969431	0.69623	0.712216
926	O	0.958745	0.77254	0.952535
927	H	0.526992	0.801384	0.952066
928	O	0.537678	0.725074	0.711747
929	H	0.956766	0.764222	0.921682
930	H	0.539657	0.733397	0.7426
931	C	0.920917	0.709459	0.672806
932	H	0.91241	0.728089	0.68392
933	H	0.911926	0.688368	0.69789
934	C	0.575507	0.788155	0.991475
935	H	0.584497	0.809246	0.966389
936	H	0.584014	0.769525	0.980359
