data_C360H504N288_2018-02-15_10:33:22
#******************************************
#
# CIF file created by Zeo++
# Zeo++ is an open source package to
# analyze microporous materials
#
#*******************************************

_cell_length_a		43.8502   
_cell_length_b		43.8501   
_cell_length_c		30.0058   
_cell_angle_alpha		90   
_cell_angle_beta		90   
_cell_angle_gamma		120   

_symmetry_space_group_name_H-M		'P1'
_symmetry_Int_Tables_number		1
_symmetry_cell_setting		Monoclinic

loop_
_symmetry_equiv_pos_as_xyz
'+x,+y,+z'

loop_
_atom_site_label
_atom_site_type_symbol
_atom_site_fract_x
_atom_site_fract_y
_atom_site_fract_z
1	C	0.181548	0.312414	0.973101
2	N	0.145945	0.297836	0.972814
3	C	0.130672	0.318202	0.973078
4	N	0.151697	0.353804	0.972804
5	C	0.187337	0.369079	0.973094
6	N	0.201913	0.348052	0.972828
7	N	0.093578	0.302157	0.972248
8	H	0.086453	0.321072	0.968465
9	N	0.208388	0.406174	0.972264
10	H	0.234432	0.413298	0.968532
11	N	0.197595	0.291366	0.972274
12	H	0.178679	0.265325	0.968482
13	C	0.318163	0.187395	0.026702
14	N	0.353765	0.201968	0.026982
15	C	0.369036	0.181599	0.026711
16	N	0.348005	0.145997	0.026988
17	C	0.312368	0.130727	0.026706
18	N	0.297794	0.151756	0.026973
19	N	0.406129	0.197643	0.027548
20	H	0.413251	0.178725	0.031341
21	N	0.291315	0.093632	0.027539
22	H	0.265271	0.086512	0.031284
23	N	0.302122	0.208447	0.027533
24	H	0.321039	0.234486	0.031334
25	C	0.237732	0.274086	0.008159
26	C	0.234244	0.249496	0.041762
27	C	0.243209	0.22311	0.03172
28	C	0.261989	0.225733	0.324995
29	C	0.265464	0.250315	0.291386
30	C	0.2565	0.276703	0.301426
31	N	0.232567	0.1947	0.059423
32	H	0.215251	0.189535	0.0826
33	H	0.235192	0.174795	0.051014
34	N	0.226038	0.25348	0.084644
35	H	0.226272	0.274739	0.094055
36	H	0.228676	0.24057	0.109148
37	N	0.273651	0.246321	0.248499
38	H	0.273418	0.225061	0.239091
39	H	0.270996	0.259222	0.223996
40	N	0.267143	0.305119	0.273734
41	H	0.264524	0.325032	0.282084
42	H	0.284499	0.310265	0.250605
43	C	0.280721	0.204923	0.320575
44	H	0.298963	0.213413	0.292468
45	H	0.260872	0.177372	0.314807
46	C	0.219002	0.2949	0.012562
47	H	0.238853	0.322452	0.018313
48	H	0.200765	0.286423	0.040674
49	C	0.225642	0.463599	0.008121
50	C	0.250168	0.484689	0.041788
51	C	0.276585	0.020036	0.031792
52	C	0.274049	0.036205	0.325028
53	C	0.249531	0.01511	0.291355
54	C	0.223114	0.479762	0.301349
55	N	0.304943	0.037788	0.059577
56	H	0.310053	0.025627	0.082798
57	H	0.324874	0.060313	0.051205
58	N	0.246092	0.472491	0.084675
59	H	0.224808	0.451467	0.094036
60	H	0.258957	0.488033	0.109205
61	N	0.253619	0.0273	0.248463
62	H	0.274902	0.048324	0.239105
63	H	0.240763	0.01175	0.223934
64	N	0.194751	0.462003	0.273574
65	H	0.174811	0.439475	0.281887
66	H	0.18966	0.474224	0.250401
67	C	0.294883	0.075747	0.32062
68	H	0.286445	0.085507	0.292471
69	H	0.322439	0.083434	0.31493
70	C	0.204804	0.424055	0.012513
71	H	0.177246	0.416368	0.018184
72	H	0.213228	0.414285	0.040668
73	C	0.03616	0.262018	0.008137
74	C	0.015066	0.265499	0.04176
75	C	0.479715	0.256541	0.031736
76	C	0.463548	0.237776	0.325006
77	C	0.484647	0.23431	0.291378
78	C	0.02	0.243265	0.301399
79	N	0.461955	0.267179	0.059461
80	H	0.474111	0.284485	0.082646
81	H	0.439424	0.264561	0.051065
82	N	0.027263	0.273686	0.08464
83	H	0.048289	0.273446	0.094035
84	H	0.01172	0.271042	0.109153
85	N	0.47246	0.22614	0.248492
86	H	0.451433	0.22638	0.239099
87	H	0.488012	0.228802	0.223979
88	N	0.037765	0.232627	0.273685
89	H	0.060296	0.235237	0.282023
90	H	0.025548	0.215278	0.250549
91	C	0.424006	0.219052	0.320595
92	H	0.41425	0.200817	0.292481
93	H	0.416309	0.238907	0.314844
94	C	0.075704	0.28074	0.01253
95	H	0.0834	0.260883	0.018266
96	H	0.08547	0.298971	0.040649
97	C	0.181548	0.312414	0.306434
98	N	0.145945	0.297836	0.306146
99	C	0.130672	0.318202	0.306409
100	N	0.151697	0.353804	0.306138
101	C	0.187337	0.369079	0.306425
102	N	0.201913	0.348052	0.306162
103	N	0.093578	0.302157	0.305579
104	H	0.086453	0.321072	0.301797
105	N	0.208388	0.406174	0.305597
106	H	0.234432	0.413298	0.301865
107	N	0.197595	0.291366	0.305607
108	H	0.178679	0.265325	0.301815
109	C	0.318163	0.187395	0.360037
110	N	0.353765	0.201968	0.360317
111	C	0.369036	0.181599	0.360043
112	N	0.348005	0.145997	0.36032
113	C	0.312368	0.130727	0.36004
114	N	0.297794	0.151756	0.360307
115	N	0.406129	0.197643	0.360883
116	H	0.413251	0.178725	0.364676
117	N	0.291315	0.093632	0.360873
118	H	0.265271	0.086512	0.364619
119	N	0.302122	0.208447	0.360867
120	H	0.321039	0.234486	0.364669
121	C	0.237732	0.274086	0.341494
122	C	0.234244	0.249496	0.375097
123	C	0.243209	0.22311	0.365052
124	C	0.261989	0.225733	0.658329
125	C	0.265464	0.250315	0.624719
126	C	0.2565	0.276703	0.63476
127	N	0.232567	0.1947	0.392757
128	H	0.215251	0.189535	0.415933
129	H	0.235192	0.174795	0.384349
130	N	0.226038	0.25348	0.417979
131	H	0.226272	0.274739	0.42739
132	H	0.228676	0.24057	0.442481
133	N	0.273651	0.246321	0.581834
134	H	0.273418	0.225061	0.572425
135	H	0.270996	0.259222	0.557328
136	N	0.267143	0.305119	0.607069
137	H	0.264524	0.325032	0.615417
138	H	0.284499	0.310265	0.58394
139	C	0.280721	0.204923	0.65391
140	H	0.298963	0.213413	0.625802
141	H	0.260872	0.177372	0.648141
142	C	0.219002	0.2949	0.345896
143	H	0.238853	0.322452	0.351648
144	H	0.200765	0.286423	0.374007
145	C	0.225642	0.463599	0.341454
146	C	0.250168	0.484689	0.37512
147	C	0.276585	0.020036	0.365126
148	C	0.274049	0.036205	0.658362
149	C	0.249531	0.01511	0.624689
150	C	0.223114	0.479762	0.634683
151	N	0.304943	0.037788	0.39291
152	H	0.310053	0.025627	0.416132
153	H	0.324874	0.060313	0.384539
154	N	0.246092	0.472491	0.418009
155	H	0.224808	0.451467	0.42737
156	H	0.258957	0.488033	0.442537
157	N	0.253619	0.0273	0.581797
158	H	0.274902	0.048324	0.572439
159	H	0.240763	0.01175	0.557268
160	N	0.194751	0.462003	0.606909
161	H	0.174811	0.439475	0.61522
162	H	0.18966	0.474224	0.583737
163	C	0.294883	0.075747	0.653953
164	H	0.286445	0.085507	0.625805
165	H	0.322439	0.083434	0.648264
166	C	0.204804	0.424055	0.345846
167	H	0.177246	0.416368	0.351518
168	H	0.213228	0.414285	0.374001
169	C	0.03616	0.262018	0.34147
170	C	0.015066	0.265499	0.375094
171	C	0.479715	0.256541	0.365069
172	C	0.463548	0.237776	0.658339
173	C	0.484647	0.23431	0.624712
174	C	0.02	0.243265	0.634733
175	N	0.461955	0.267179	0.392794
176	H	0.474111	0.284485	0.415979
177	H	0.439424	0.264561	0.384399
178	N	0.027263	0.273686	0.417972
179	H	0.048289	0.273446	0.42737
180	H	0.01172	0.271042	0.442487
181	N	0.47246	0.22614	0.581827
182	H	0.451433	0.22638	0.572432
183	H	0.488012	0.228802	0.557312
184	N	0.037765	0.232627	0.607019
185	H	0.060296	0.235237	0.615357
186	H	0.025548	0.215278	0.583883
187	C	0.424006	0.219052	0.65393
188	H	0.41425	0.200817	0.625815
189	H	0.416309	0.238907	0.648177
190	C	0.075704	0.28074	0.345863
191	H	0.0834	0.260883	0.351598
192	H	0.08547	0.298971	0.373984
193	C	0.181548	0.312414	0.639769
194	N	0.145945	0.297836	0.639479
195	C	0.130672	0.318202	0.639742
196	N	0.151697	0.353804	0.639472
197	C	0.187337	0.369079	0.639759
198	N	0.201913	0.348052	0.639496
199	N	0.093578	0.302157	0.638913
200	H	0.086453	0.321072	0.63513
201	N	0.208388	0.406174	0.638933
202	H	0.234432	0.413298	0.6352
203	N	0.197595	0.291366	0.638939
204	H	0.178679	0.265325	0.63515
205	C	0.318163	0.187395	0.693369
206	N	0.353765	0.201968	0.693649
207	C	0.369036	0.181599	0.693379
208	N	0.348005	0.145997	0.693655
209	C	0.312368	0.130727	0.693372
210	N	0.297794	0.151756	0.693642
211	N	0.406129	0.197643	0.694215
212	H	0.413251	0.178725	0.698008
213	N	0.291315	0.093632	0.694205
214	H	0.265271	0.086512	0.697951
215	N	0.302122	0.208447	0.694202
216	H	0.321039	0.234486	0.698001
217	C	0.237732	0.274086	0.674826
218	C	0.234244	0.249496	0.708429
219	C	0.243209	0.22311	0.698388
220	C	0.261989	0.225733	0.991664
221	C	0.265464	0.250315	0.958054
222	C	0.2565	0.276703	0.968092
223	N	0.232567	0.1947	0.726089
224	H	0.215251	0.189535	0.749268
225	H	0.235192	0.174795	0.717681
226	N	0.226038	0.25348	0.751311
227	H	0.226272	0.274739	0.760722
228	H	0.228676	0.24057	0.775816
229	N	0.273651	0.246321	0.915166
230	H	0.273418	0.225061	0.905757
231	H	0.270996	0.259222	0.890664
232	N	0.267143	0.305119	0.940401
233	H	0.264524	0.325032	0.948752
234	H	0.284499	0.310265	0.917272
235	C	0.280721	0.204923	0.987242
236	H	0.298963	0.213413	0.959134
237	H	0.260872	0.177372	0.981476
238	C	0.219002	0.2949	0.679228
239	H	0.238853	0.322452	0.68498
240	H	0.200765	0.286423	0.707343
241	C	0.225642	0.463599	0.674789
242	C	0.250168	0.484689	0.708456
243	C	0.276585	0.020036	0.698458
244	C	0.274049	0.036205	0.991694
245	C	0.249531	0.01511	0.958024
246	C	0.223114	0.479762	0.968015
247	N	0.304943	0.037788	0.726246
248	H	0.310053	0.025627	0.749464
249	H	0.324874	0.060313	0.717871
250	N	0.246092	0.472491	0.751344
251	H	0.224808	0.451467	0.760702
252	H	0.258957	0.488033	0.775873
253	N	0.253619	0.0273	0.915132
254	H	0.274902	0.048324	0.905774
255	H	0.240763	0.01175	0.8906
256	N	0.194751	0.462003	0.940241
257	H	0.174811	0.439475	0.948556
258	H	0.18966	0.474224	0.917068
259	C	0.294883	0.075747	0.987288
260	H	0.286445	0.085507	0.959137
261	H	0.322439	0.083434	0.981596
262	C	0.204804	0.424055	0.679181
263	H	0.177246	0.416368	0.68485
264	H	0.213228	0.414285	0.707336
265	C	0.03616	0.262018	0.674806
266	C	0.015066	0.265499	0.708426
267	C	0.479715	0.256541	0.698404
268	C	0.463548	0.237776	0.991674
269	C	0.484647	0.23431	0.958044
270	C	0.02	0.243265	0.968065
271	N	0.461955	0.267179	0.726129
272	H	0.474111	0.284485	0.749314
273	H	0.439424	0.264561	0.717734
274	N	0.027263	0.273686	0.751307
275	H	0.048289	0.273446	0.760702
276	H	0.01172	0.271042	0.775819
277	N	0.47246	0.22614	0.915159
278	H	0.451433	0.22638	0.905767
279	H	0.488012	0.228802	0.890647
280	N	0.037765	0.232627	0.940354
281	H	0.060296	0.235237	0.948689
282	H	0.025548	0.215278	0.917215
283	C	0.424006	0.219052	0.987262
284	H	0.41425	0.200817	0.959147
285	H	0.416309	0.238907	0.981513
286	C	0.075704	0.28074	0.679198
287	H	0.0834	0.260883	0.684934
288	H	0.08547	0.298971	0.707316
289	C	0.181548	0.812412	0.973101
290	N	0.145946	0.797837	0.972814
291	C	0.130672	0.818203	0.973078
292	N	0.151697	0.853805	0.972804
293	C	0.187336	0.869078	0.973094
294	N	0.201914	0.848054	0.972828
295	N	0.093576	0.802155	0.972248
296	H	0.086454	0.821073	0.968465
297	N	0.208388	0.906173	0.972264
298	H	0.234432	0.913296	0.968532
299	N	0.197594	0.791364	0.972274
300	H	0.178679	0.765324	0.968482
301	C	0.318164	0.687397	0.026702
302	N	0.353766	0.701969	0.026982
303	C	0.369036	0.681601	0.026711
304	N	0.348007	0.645999	0.026988
305	C	0.312368	0.630728	0.026706
306	N	0.297795	0.651758	0.026973
307	N	0.406129	0.697643	0.027548
308	H	0.413251	0.678725	0.031341
309	N	0.291315	0.593633	0.027539
310	H	0.265272	0.586513	0.031284
311	N	0.302122	0.708447	0.027533
312	H	0.32104	0.734488	0.031334
313	C	0.237733	0.774087	0.008159
314	C	0.234245	0.749498	0.041762
315	C	0.243209	0.723109	0.03172
316	C	0.26199	0.725735	0.324996
317	C	0.265465	0.750317	0.291386
318	C	0.2565	0.776702	0.301426
319	N	0.232568	0.694701	0.059423
320	H	0.215251	0.689535	0.0826
321	H	0.235193	0.674796	0.051014
322	N	0.226039	0.753482	0.084644
323	H	0.226273	0.77474	0.094055
324	H	0.228677	0.740571	0.109148
325	N	0.273652	0.746322	0.248499
326	H	0.273418	0.725061	0.239091
327	H	0.270996	0.759222	0.223996
328	N	0.267144	0.805121	0.273734
329	H	0.264525	0.825033	0.282084
330	H	0.2845	0.810266	0.250605
331	C	0.280722	0.704924	0.320575
332	H	0.298963	0.713414	0.292468
333	H	0.260872	0.677372	0.314807
334	C	0.219002	0.794901	0.012562
335	H	0.238854	0.822453	0.018313
336	H	0.200766	0.786424	0.040674
337	C	0.225641	0.9636	0.008121
338	C	0.250167	0.984687	0.041788
339	C	0.276586	0.520038	0.031792
340	C	0.274051	0.536206	0.325028
341	C	0.249533	0.515111	0.291355
342	C	0.223114	0.979763	0.301349
343	N	0.304943	0.537789	0.059577
344	H	0.310053	0.525628	0.082798
345	H	0.324873	0.560314	0.051205
346	N	0.246091	0.97249	0.084675
347	H	0.224809	0.951468	0.094036
348	H	0.258958	0.988034	0.109205
349	N	0.253619	0.527301	0.248463
350	H	0.274902	0.548325	0.239105
351	H	0.240764	0.511751	0.223934
352	N	0.19475	0.962004	0.273574
353	H	0.174811	0.939476	0.281887
354	H	0.189661	0.974225	0.250401
355	C	0.294884	0.575748	0.32062
356	H	0.286444	0.585507	0.292471
357	H	0.32244	0.583434	0.31493
358	C	0.204804	0.924056	0.012513
359	H	0.177246	0.916369	0.018184
360	H	0.213229	0.914286	0.040668
361	C	0.03616	0.762019	0.008137
362	C	0.015065	0.765497	0.04176
363	C	0.479714	0.756542	0.031736
364	C	0.463549	0.737777	0.325006
365	C	0.484649	0.734311	0.291378
366	C	0.020001	0.743265	0.301399
367	N	0.461956	0.76718	0.059461
368	H	0.474112	0.784486	0.082646
369	H	0.439425	0.76456	0.051065
370	N	0.027265	0.773687	0.08464
371	H	0.04829	0.773447	0.094035
372	H	0.011722	0.771043	0.109153
373	N	0.47246	0.72614	0.248492
374	H	0.451433	0.72638	0.239099
375	H	0.488011	0.728803	0.223979
376	N	0.037765	0.732626	0.273685
377	H	0.060298	0.735238	0.282023
378	H	0.025547	0.715278	0.250549
379	C	0.424007	0.719051	0.320595
380	H	0.41425	0.700819	0.292481
381	H	0.41631	0.738906	0.314844
382	C	0.075704	0.780742	0.01253
383	H	0.083401	0.760884	0.018266
384	H	0.085471	0.798972	0.040649
385	C	0.181548	0.812412	0.306434
386	N	0.145946	0.797837	0.306146
387	C	0.130672	0.818203	0.306409
388	N	0.151697	0.853805	0.306138
389	C	0.187336	0.869078	0.306425
390	N	0.201914	0.848054	0.306162
391	N	0.093576	0.802155	0.305579
392	H	0.086454	0.821073	0.301797
393	N	0.208388	0.906173	0.305597
394	H	0.234432	0.913296	0.301865
395	N	0.197594	0.791364	0.305607
396	H	0.178679	0.765324	0.301815
397	C	0.318164	0.687397	0.360037
398	N	0.353766	0.701969	0.360317
399	C	0.369036	0.681601	0.360043
400	N	0.348007	0.645999	0.36032
401	C	0.312368	0.630728	0.36004
402	N	0.297795	0.651758	0.360307
403	N	0.406129	0.697643	0.360883
404	H	0.413251	0.678725	0.364676
405	N	0.291315	0.593633	0.360873
406	H	0.265272	0.586513	0.364619
407	N	0.302122	0.708447	0.360867
408	H	0.32104	0.734488	0.364669
409	C	0.237733	0.774087	0.341494
410	C	0.234245	0.749498	0.375097
411	C	0.243209	0.723109	0.365052
412	C	0.26199	0.725735	0.658329
413	C	0.265465	0.750317	0.624719
414	C	0.2565	0.776702	0.63476
415	N	0.232568	0.694701	0.392757
416	H	0.215251	0.689535	0.415933
417	H	0.235193	0.674796	0.384349
418	N	0.226039	0.753482	0.417979
419	H	0.226273	0.77474	0.42739
420	H	0.228677	0.740571	0.442481
421	N	0.273652	0.746322	0.581834
422	H	0.273418	0.725061	0.572425
423	H	0.270996	0.759222	0.557328
424	N	0.267144	0.805121	0.607069
425	H	0.264525	0.825033	0.615417
426	H	0.2845	0.810266	0.58394
427	C	0.280722	0.704924	0.65391
428	H	0.298963	0.713414	0.625802
429	H	0.260872	0.677372	0.648141
430	C	0.219002	0.794901	0.345896
431	H	0.238854	0.822453	0.351648
432	H	0.200766	0.786424	0.374007
433	C	0.225641	0.9636	0.341454
434	C	0.250167	0.984687	0.37512
435	C	0.276586	0.520038	0.365126
436	C	0.274051	0.536206	0.658362
437	C	0.249533	0.515111	0.624689
438	C	0.223114	0.979763	0.634683
439	N	0.304943	0.537789	0.39291
440	H	0.310053	0.525628	0.416132
441	H	0.324873	0.560314	0.384539
442	N	0.246091	0.97249	0.418009
443	H	0.224809	0.951468	0.42737
444	H	0.258958	0.988034	0.442537
445	N	0.253619	0.527301	0.581797
446	H	0.274902	0.548325	0.572439
447	H	0.240764	0.511751	0.557268
448	N	0.19475	0.962004	0.606909
449	H	0.174811	0.939476	0.61522
450	H	0.189661	0.974225	0.583737
451	C	0.294884	0.575748	0.653953
452	H	0.286444	0.585507	0.625805
453	H	0.32244	0.583434	0.648264
454	C	0.204804	0.924056	0.345846
455	H	0.177246	0.916369	0.351518
456	H	0.213229	0.914286	0.374001
457	C	0.03616	0.762019	0.34147
458	C	0.015065	0.765497	0.375094
459	C	0.479714	0.756542	0.365069
460	C	0.463549	0.737777	0.658339
461	C	0.484649	0.734311	0.624712
462	C	0.020001	0.743265	0.634733
463	N	0.461956	0.76718	0.392794
464	H	0.474112	0.784486	0.415979
465	H	0.439425	0.76456	0.384399
466	N	0.027265	0.773687	0.417972
467	H	0.04829	0.773447	0.42737
468	H	0.011722	0.771043	0.442487
469	N	0.47246	0.72614	0.581827
470	H	0.451433	0.72638	0.572432
471	H	0.488011	0.728803	0.557312
472	N	0.037765	0.732626	0.607019
473	H	0.060298	0.735238	0.615357
474	H	0.025547	0.715278	0.583883
475	C	0.424007	0.719051	0.65393
476	H	0.41425	0.700819	0.625815
477	H	0.41631	0.738906	0.648177
478	C	0.075704	0.780742	0.345863
479	H	0.083401	0.760884	0.351598
480	H	0.085471	0.798972	0.373984
481	C	0.181548	0.812412	0.639769
482	N	0.145946	0.797837	0.639479
483	C	0.130672	0.818203	0.639742
484	N	0.151697	0.853805	0.639472
485	C	0.187336	0.869078	0.639759
486	N	0.201914	0.848054	0.639496
487	N	0.093576	0.802155	0.638913
488	H	0.086454	0.821073	0.63513
489	N	0.208388	0.906173	0.638933
490	H	0.234432	0.913296	0.6352
491	N	0.197594	0.791364	0.638939
492	H	0.178679	0.765324	0.63515
493	C	0.318164	0.687397	0.693369
494	N	0.353766	0.701969	0.693649
495	C	0.369036	0.681601	0.693379
496	N	0.348007	0.645999	0.693655
497	C	0.312368	0.630728	0.693372
498	N	0.297795	0.651758	0.693642
499	N	0.406129	0.697643	0.694215
500	H	0.413251	0.678725	0.698008
501	N	0.291315	0.593633	0.694205
502	H	0.265272	0.586513	0.697951
503	N	0.302122	0.708447	0.694202
504	H	0.32104	0.734488	0.698001
505	C	0.237733	0.774087	0.674826
506	C	0.234245	0.749498	0.708429
507	C	0.243209	0.723109	0.698388
508	C	0.26199	0.725735	0.991664
509	C	0.265465	0.750317	0.958054
510	C	0.2565	0.776702	0.968092
511	N	0.232568	0.694701	0.726089
512	H	0.215251	0.689535	0.749268
513	H	0.235193	0.674796	0.717681
514	N	0.226039	0.753482	0.751311
515	H	0.226273	0.77474	0.760722
516	H	0.228677	0.740571	0.775816
517	N	0.273652	0.746322	0.915166
518	H	0.273418	0.725061	0.905757
519	H	0.270996	0.759222	0.890664
520	N	0.267144	0.805121	0.940401
521	H	0.264525	0.825033	0.948752
522	H	0.2845	0.810266	0.917272
523	C	0.280722	0.704924	0.987242
524	H	0.298963	0.713414	0.959134
525	H	0.260872	0.677372	0.981476
526	C	0.219002	0.794901	0.679228
527	H	0.238854	0.822453	0.68498
528	H	0.200766	0.786424	0.707343
529	C	0.225641	0.9636	0.674789
530	C	0.250167	0.984687	0.708456
531	C	0.276586	0.520038	0.698458
532	C	0.274051	0.536206	0.991694
533	C	0.249533	0.515111	0.958024
534	C	0.223114	0.979763	0.968015
535	N	0.304943	0.537789	0.726246
536	H	0.310053	0.525628	0.749464
537	H	0.324873	0.560314	0.717871
538	N	0.246091	0.97249	0.751344
539	H	0.224809	0.951468	0.760702
540	H	0.258958	0.988034	0.775873
541	N	0.253619	0.527301	0.915132
542	H	0.274902	0.548325	0.905774
543	H	0.240764	0.511751	0.8906
544	N	0.19475	0.962004	0.940241
545	H	0.174811	0.939476	0.948556
546	H	0.189661	0.974225	0.917068
547	C	0.294884	0.575748	0.987288
548	H	0.286444	0.585507	0.959137
549	H	0.32244	0.583434	0.981596
550	C	0.204804	0.924056	0.679181
551	H	0.177246	0.916369	0.68485
552	H	0.213229	0.914286	0.707336
553	C	0.03616	0.762019	0.674806
554	C	0.015065	0.765497	0.708426
555	C	0.479714	0.756542	0.698404
556	C	0.463549	0.737777	0.991674
557	C	0.484649	0.734311	0.958044
558	C	0.020001	0.743265	0.968065
559	N	0.461956	0.76718	0.726129
560	H	0.474112	0.784486	0.749314
561	H	0.439425	0.76456	0.717734
562	N	0.027265	0.773687	0.751307
563	H	0.04829	0.773447	0.760702
564	H	0.011722	0.771043	0.775819
565	N	0.47246	0.72614	0.915159
566	H	0.451433	0.72638	0.905767
567	H	0.488011	0.728803	0.890647
568	N	0.037765	0.732626	0.940354
569	H	0.060298	0.735238	0.948689
570	H	0.025547	0.715278	0.917215
571	C	0.424007	0.719051	0.987262
572	H	0.41425	0.700819	0.959147
573	H	0.41631	0.738906	0.981513
574	C	0.075704	0.780742	0.679198
575	H	0.083401	0.760884	0.684934
576	H	0.085471	0.798972	0.707316
577	C	0.681548	0.312414	0.973101
578	N	0.645944	0.297836	0.972814
579	C	0.630672	0.318202	0.973078
580	N	0.651698	0.353804	0.972804
581	C	0.687338	0.369079	0.973094
582	N	0.701912	0.348052	0.972828
583	N	0.593578	0.302157	0.972248
584	H	0.586452	0.321072	0.968465
585	N	0.708387	0.406174	0.972264
586	H	0.734432	0.413298	0.968532
587	N	0.697594	0.291366	0.972274
588	H	0.678678	0.265325	0.968482
589	C	0.818162	0.187395	0.026702
590	N	0.853765	0.201968	0.026982
591	C	0.869036	0.181599	0.026711
592	N	0.848005	0.145997	0.026988
593	C	0.812366	0.130727	0.026706
594	N	0.797792	0.151756	0.026973
595	N	0.906129	0.197643	0.027548
596	H	0.913249	0.178725	0.031341
597	N	0.791315	0.093632	0.027539
598	H	0.765271	0.086512	0.031284
599	N	0.802122	0.208447	0.027533
600	H	0.821039	0.234486	0.031334
601	C	0.737731	0.274086	0.008159
602	C	0.734243	0.249496	0.041762
603	C	0.74321	0.22311	0.03172
604	C	0.761988	0.225733	0.324995
605	C	0.765463	0.250315	0.291386
606	C	0.756499	0.276703	0.301426
607	N	0.732567	0.1947	0.059423
608	H	0.715251	0.189535	0.0826
609	H	0.735191	0.174795	0.051014
610	N	0.726037	0.25348	0.084644
611	H	0.726272	0.274739	0.094055
612	H	0.728674	0.24057	0.109148
613	N	0.77365	0.246321	0.248499
614	H	0.773417	0.225061	0.239091
615	H	0.770995	0.259222	0.223996
616	N	0.767143	0.305119	0.273734
617	H	0.764523	0.325032	0.282084
618	H	0.7845	0.310265	0.250605
619	C	0.780721	0.204923	0.320575
620	H	0.798963	0.213413	0.292468
621	H	0.760872	0.177372	0.314807
622	C	0.719	0.2949	0.012562
623	H	0.738851	0.322452	0.018313
624	H	0.700764	0.286423	0.040674
625	C	0.725642	0.463599	0.008121
626	C	0.750169	0.484689	0.041788
627	C	0.776585	0.020036	0.031792
628	C	0.774049	0.036205	0.325028
629	C	0.749531	0.01511	0.291355
630	C	0.723112	0.479762	0.301349
631	N	0.804941	0.037788	0.059577
632	H	0.810053	0.025627	0.082798
633	H	0.824871	0.060313	0.051205
634	N	0.746093	0.472491	0.084675
635	H	0.724808	0.451467	0.094036
636	H	0.758956	0.488033	0.109205
637	N	0.753617	0.0273	0.248463
638	H	0.774902	0.048324	0.239105
639	H	0.740763	0.01175	0.223934
640	N	0.694751	0.462003	0.273574
641	H	0.674812	0.439475	0.281887
642	H	0.68966	0.474224	0.250401
643	C	0.794883	0.075747	0.32062
644	H	0.786442	0.085507	0.292471
645	H	0.822439	0.083434	0.31493
646	C	0.704803	0.424055	0.012513
647	H	0.677245	0.416368	0.018184
648	H	0.713227	0.414285	0.040668
649	C	0.536159	0.262018	0.008137
650	C	0.515067	0.265499	0.04176
651	C	0.979713	0.256541	0.031736
652	C	0.963548	0.237776	0.325006
653	C	0.984647	0.23431	0.291378
654	C	0.52	0.243265	0.301399
655	N	0.961955	0.267179	0.059461
656	H	0.974111	0.284485	0.082646
657	H	0.939424	0.264561	0.051065
658	N	0.527263	0.273686	0.08464
659	H	0.548288	0.273446	0.094035
660	H	0.51172	0.271042	0.109153
661	N	0.97246	0.22614	0.248492
662	H	0.951433	0.22638	0.239099
663	H	0.988009	0.228802	0.223979
664	N	0.537764	0.232627	0.273685
665	H	0.560296	0.235237	0.282023
666	H	0.525548	0.215278	0.250549
667	C	0.924006	0.219052	0.320595
668	H	0.91425	0.200817	0.292481
669	H	0.916309	0.238907	0.314844
670	C	0.575705	0.28074	0.01253
671	H	0.5834	0.260883	0.018266
672	H	0.58547	0.298971	0.040649
673	C	0.681548	0.312414	0.306434
674	N	0.645944	0.297836	0.306146
675	C	0.630672	0.318202	0.306409
676	N	0.651698	0.353804	0.306138
677	C	0.687338	0.369079	0.306425
678	N	0.701912	0.348052	0.306162
679	N	0.593578	0.302157	0.305579
680	H	0.586452	0.321072	0.301797
681	N	0.708387	0.406174	0.305597
682	H	0.734432	0.413298	0.301865
683	N	0.697594	0.291366	0.305607
684	H	0.678678	0.265325	0.301815
685	C	0.818162	0.187395	0.360037
686	N	0.853765	0.201968	0.360317
687	C	0.869036	0.181599	0.360043
688	N	0.848005	0.145997	0.36032
689	C	0.812366	0.130727	0.36004
690	N	0.797792	0.151756	0.360307
691	N	0.906129	0.197643	0.360883
692	H	0.913249	0.178725	0.364676
693	N	0.791315	0.093632	0.360873
694	H	0.765271	0.086512	0.364619
695	N	0.802122	0.208447	0.360867
696	H	0.821039	0.234486	0.364669
697	C	0.737731	0.274086	0.341494
698	C	0.734243	0.249496	0.375097
699	C	0.74321	0.22311	0.365052
700	C	0.761988	0.225733	0.658329
701	C	0.765463	0.250315	0.624719
702	C	0.756499	0.276703	0.63476
703	N	0.732567	0.1947	0.392757
704	H	0.715251	0.189535	0.415933
705	H	0.735191	0.174795	0.384349
706	N	0.726037	0.25348	0.417979
707	H	0.726272	0.274739	0.42739
708	H	0.728674	0.24057	0.442481
709	N	0.77365	0.246321	0.581834
710	H	0.773417	0.225061	0.572425
711	H	0.770995	0.259222	0.557328
712	N	0.767143	0.305119	0.607069
713	H	0.764523	0.325032	0.615417
714	H	0.7845	0.310265	0.58394
715	C	0.780721	0.204923	0.65391
716	H	0.798963	0.213413	0.625802
717	H	0.760872	0.177372	0.648141
718	C	0.719	0.2949	0.345896
719	H	0.738851	0.322452	0.351648
720	H	0.700764	0.286423	0.374007
721	C	0.725642	0.463599	0.341454
722	C	0.750169	0.484689	0.37512
723	C	0.776585	0.020036	0.365126
724	C	0.774049	0.036205	0.658362
725	C	0.749531	0.01511	0.624689
726	C	0.723112	0.479762	0.634683
727	N	0.804941	0.037788	0.39291
728	H	0.810053	0.025627	0.416132
729	H	0.824871	0.060313	0.384539
730	N	0.746093	0.472491	0.418009
731	H	0.724808	0.451467	0.42737
732	H	0.758956	0.488033	0.442537
733	N	0.753617	0.0273	0.581797
734	H	0.774902	0.048324	0.572439
735	H	0.740763	0.01175	0.557268
736	N	0.694751	0.462003	0.606909
737	H	0.674812	0.439475	0.61522
738	H	0.68966	0.474224	0.583737
739	C	0.794883	0.075747	0.653953
740	H	0.786442	0.085507	0.625805
741	H	0.822439	0.083434	0.648264
742	C	0.704803	0.424055	0.345846
743	H	0.677245	0.416368	0.351518
744	H	0.713227	0.414285	0.374001
745	C	0.536159	0.262018	0.34147
746	C	0.515067	0.265499	0.375094
747	C	0.979713	0.256541	0.365069
748	C	0.963548	0.237776	0.658339
749	C	0.984647	0.23431	0.624712
750	C	0.52	0.243265	0.634733
751	N	0.961955	0.267179	0.392794
752	H	0.974111	0.284485	0.415979
753	H	0.939424	0.264561	0.384399
754	N	0.527263	0.273686	0.417972
755	H	0.548288	0.273446	0.42737
756	H	0.51172	0.271042	0.442487
757	N	0.97246	0.22614	0.581827
758	H	0.951433	0.22638	0.572432
759	H	0.988009	0.228802	0.557312
760	N	0.537764	0.232627	0.607019
761	H	0.560296	0.235237	0.615357
762	H	0.525548	0.215278	0.583883
763	C	0.924006	0.219052	0.65393
764	H	0.91425	0.200817	0.625815
765	H	0.916309	0.238907	0.648177
766	C	0.575705	0.28074	0.345863
767	H	0.5834	0.260883	0.351598
768	H	0.58547	0.298971	0.373984
769	C	0.681548	0.312414	0.639769
770	N	0.645944	0.297836	0.639479
771	C	0.630672	0.318202	0.639742
772	N	0.651698	0.353804	0.639472
773	C	0.687338	0.369079	0.639759
774	N	0.701912	0.348052	0.639496
775	N	0.593578	0.302157	0.638913
776	H	0.586452	0.321072	0.63513
777	N	0.708387	0.406174	0.638933
778	H	0.734432	0.413298	0.6352
779	N	0.697594	0.291366	0.638939
780	H	0.678678	0.265325	0.63515
781	C	0.818162	0.187395	0.693369
782	N	0.853765	0.201968	0.693649
783	C	0.869036	0.181599	0.693379
784	N	0.848005	0.145997	0.693655
785	C	0.812366	0.130727	0.693372
786	N	0.797792	0.151756	0.693642
787	N	0.906129	0.197643	0.694215
788	H	0.913249	0.178725	0.698008
789	N	0.791315	0.093632	0.694205
790	H	0.765271	0.086512	0.697951
791	N	0.802122	0.208447	0.694202
792	H	0.821039	0.234486	0.698001
793	C	0.737731	0.274086	0.674826
794	C	0.734243	0.249496	0.708429
795	C	0.74321	0.22311	0.698388
796	C	0.761988	0.225733	0.991664
797	C	0.765463	0.250315	0.958054
798	C	0.756499	0.276703	0.968092
799	N	0.732567	0.1947	0.726089
800	H	0.715251	0.189535	0.749268
801	H	0.735191	0.174795	0.717681
802	N	0.726037	0.25348	0.751311
803	H	0.726272	0.274739	0.760722
804	H	0.728674	0.24057	0.775816
805	N	0.77365	0.246321	0.915166
806	H	0.773417	0.225061	0.905757
807	H	0.770995	0.259222	0.890664
808	N	0.767143	0.305119	0.940401
809	H	0.764523	0.325032	0.948752
810	H	0.7845	0.310265	0.917272
811	C	0.780721	0.204923	0.987242
812	H	0.798963	0.213413	0.959134
813	H	0.760872	0.177372	0.981476
814	C	0.719	0.2949	0.679228
815	H	0.738851	0.322452	0.68498
816	H	0.700764	0.286423	0.707343
817	C	0.725642	0.463599	0.674789
818	C	0.750169	0.484689	0.708456
819	C	0.776585	0.020036	0.698458
820	C	0.774049	0.036205	0.991694
821	C	0.749531	0.01511	0.958024
822	C	0.723112	0.479762	0.968015
823	N	0.804941	0.037788	0.726246
824	H	0.810053	0.025627	0.749464
825	H	0.824871	0.060313	0.717871
826	N	0.746093	0.472491	0.751344
827	H	0.724808	0.451467	0.760702
828	H	0.758956	0.488033	0.775873
829	N	0.753617	0.0273	0.915132
830	H	0.774902	0.048324	0.905774
831	H	0.740763	0.01175	0.8906
832	N	0.694751	0.462003	0.940241
833	H	0.674812	0.439475	0.948556
834	H	0.68966	0.474224	0.917068
835	C	0.794883	0.075747	0.987288
836	H	0.786442	0.085507	0.959137
837	H	0.822439	0.083434	0.981596
838	C	0.704803	0.424055	0.679181
839	H	0.677245	0.416368	0.68485
840	H	0.713227	0.414285	0.707336
841	C	0.536159	0.262018	0.674806
842	C	0.515067	0.265499	0.708426
843	C	0.979713	0.256541	0.698404
844	C	0.963548	0.237776	0.991674
845	C	0.984647	0.23431	0.958044
846	C	0.52	0.243265	0.968065
847	N	0.961955	0.267179	0.726129
848	H	0.974111	0.284485	0.749314
849	H	0.939424	0.264561	0.717734
850	N	0.527263	0.273686	0.751307
851	H	0.548288	0.273446	0.760702
852	H	0.51172	0.271042	0.775819
853	N	0.97246	0.22614	0.915159
854	H	0.951433	0.22638	0.905767
855	H	0.988009	0.228802	0.890647
856	N	0.537764	0.232627	0.940354
857	H	0.560296	0.235237	0.948689
858	H	0.525548	0.215278	0.917215
859	C	0.924006	0.219052	0.987262
860	H	0.91425	0.200817	0.959147
861	H	0.916309	0.238907	0.981513
862	C	0.575705	0.28074	0.679198
863	H	0.5834	0.260883	0.684934
864	H	0.58547	0.298971	0.707316
865	C	0.681548	0.812412	0.973101
866	N	0.645946	0.797837	0.972814
867	C	0.630672	0.818203	0.973078
868	N	0.651698	0.853805	0.972804
869	C	0.687336	0.869078	0.973094
870	N	0.701914	0.848054	0.972828
871	N	0.593577	0.802155	0.972248
872	H	0.586453	0.821073	0.968465
873	N	0.708388	0.906173	0.972264
874	H	0.734432	0.913296	0.968532
875	N	0.697594	0.791364	0.972274
876	H	0.678679	0.765324	0.968482
877	C	0.818164	0.687397	0.026702
878	N	0.853765	0.701969	0.026982
879	C	0.869035	0.681601	0.026711
880	N	0.848007	0.645999	0.026988
881	C	0.812368	0.630728	0.026706
882	N	0.797795	0.651758	0.026973
883	N	0.906128	0.697643	0.027548
884	H	0.913251	0.678725	0.031341
885	N	0.791314	0.593633	0.027539
886	H	0.76527	0.586513	0.031284
887	N	0.802121	0.708447	0.027533
888	H	0.821039	0.734488	0.031334
889	C	0.737733	0.774087	0.008159
890	C	0.734245	0.749498	0.041762
891	C	0.743209	0.723109	0.03172
892	C	0.76199	0.725735	0.324996
893	C	0.765464	0.750317	0.291386
894	C	0.7565	0.776702	0.301426
895	N	0.732567	0.694701	0.059423
896	H	0.715249	0.689535	0.0826
897	H	0.735193	0.674796	0.051014
898	N	0.726039	0.753482	0.084644
899	H	0.726272	0.77474	0.094055
900	H	0.728676	0.740571	0.109148
901	N	0.773652	0.746322	0.248499
902	H	0.773418	0.725061	0.239091
903	H	0.770996	0.759222	0.223996
904	N	0.767142	0.805121	0.273734
905	H	0.764524	0.825033	0.282084
906	H	0.7845	0.810266	0.250605
907	C	0.78072	0.704924	0.320575
908	H	0.798962	0.713414	0.292468
909	H	0.760871	0.677372	0.314807
910	C	0.719002	0.794901	0.012562
911	H	0.738853	0.822453	0.018313
912	H	0.700766	0.786424	0.040674
913	C	0.725641	0.9636	0.008121
914	C	0.750167	0.984687	0.041788
915	C	0.776584	0.520038	0.031792
916	C	0.774051	0.536206	0.325028
917	C	0.749533	0.515111	0.291355
918	C	0.723114	0.979763	0.301349
919	N	0.804942	0.537789	0.059577
920	H	0.810052	0.525628	0.082798
921	H	0.824873	0.560314	0.051205
922	N	0.746091	0.97249	0.084675
923	H	0.724809	0.951468	0.094036
924	H	0.758958	0.988034	0.109205
925	N	0.753618	0.527301	0.248463
926	H	0.774901	0.548325	0.239105
927	H	0.740763	0.511751	0.223934
928	N	0.694751	0.962004	0.273574
929	H	0.674812	0.939476	0.281887
930	H	0.68966	0.974225	0.250401
931	C	0.794884	0.575748	0.32062
932	H	0.786443	0.585507	0.292471
933	H	0.82244	0.583434	0.31493
934	C	0.704804	0.924056	0.012513
935	H	0.677247	0.916369	0.018184
936	H	0.713229	0.914286	0.040668
937	C	0.53616	0.762019	0.008137
938	C	0.515066	0.765497	0.04176
939	C	0.979714	0.756542	0.031736
940	C	0.963549	0.737777	0.325006
941	C	0.984649	0.734311	0.291378
942	C	0.52	0.743265	0.301399
943	N	0.961955	0.76718	0.059461
944	H	0.974113	0.784486	0.082646
945	H	0.939425	0.76456	0.051065
946	N	0.527263	0.773687	0.08464
947	H	0.54829	0.773447	0.094035
948	H	0.511721	0.771043	0.109153
949	N	0.972458	0.72614	0.248492
950	H	0.951431	0.72638	0.239099
951	H	0.988011	0.728803	0.223979
952	N	0.537764	0.732626	0.273685
953	H	0.560297	0.735238	0.282023
954	H	0.525547	0.715278	0.250549
955	C	0.924007	0.719051	0.320595
956	H	0.914249	0.700819	0.292481
957	H	0.91631	0.738906	0.314844
958	C	0.575705	0.780742	0.01253
959	H	0.5834	0.760884	0.018266
960	H	0.58547	0.798972	0.040649
961	C	0.681548	0.812412	0.306434
962	N	0.645946	0.797837	0.306146
963	C	0.630672	0.818203	0.306409
964	N	0.651698	0.853805	0.306138
965	C	0.687336	0.869078	0.306425
966	N	0.701914	0.848054	0.306162
967	N	0.593577	0.802155	0.305579
968	H	0.586453	0.821073	0.301797
969	N	0.708388	0.906173	0.305597
970	H	0.734432	0.913296	0.301865
971	N	0.697594	0.791364	0.305607
972	H	0.678679	0.765324	0.301815
973	C	0.818164	0.687397	0.360037
974	N	0.853765	0.701969	0.360317
975	C	0.869035	0.681601	0.360043
976	N	0.848007	0.645999	0.36032
977	C	0.812368	0.630728	0.36004
978	N	0.797795	0.651758	0.360307
979	N	0.906128	0.697643	0.360883
980	H	0.913251	0.678725	0.364676
981	N	0.791314	0.593633	0.360873
982	H	0.76527	0.586513	0.364619
983	N	0.802121	0.708447	0.360867
984	H	0.821039	0.734488	0.364669
985	C	0.737733	0.774087	0.341494
986	C	0.734245	0.749498	0.375097
987	C	0.743209	0.723109	0.365052
988	C	0.76199	0.725735	0.658329
989	C	0.765464	0.750317	0.624719
990	C	0.7565	0.776702	0.63476
991	N	0.732567	0.694701	0.392757
992	H	0.715249	0.689535	0.415933
993	H	0.735193	0.674796	0.384349
994	N	0.726039	0.753482	0.417979
995	H	0.726272	0.77474	0.42739
996	H	0.728676	0.740571	0.442481
997	N	0.773652	0.746322	0.581834
998	H	0.773418	0.725061	0.572425
999	H	0.770996	0.759222	0.557328
1000	N	0.767142	0.805121	0.607069
1001	H	0.764524	0.825033	0.615417
1002	H	0.7845	0.810266	0.58394
1003	C	0.78072	0.704924	0.65391
1004	H	0.798962	0.713414	0.625802
1005	H	0.760871	0.677372	0.648141
1006	C	0.719002	0.794901	0.345896
1007	H	0.738853	0.822453	0.351648
1008	H	0.700766	0.786424	0.374007
1009	C	0.725641	0.9636	0.341454
1010	C	0.750167	0.984687	0.37512
1011	C	0.776584	0.520038	0.365126
1012	C	0.774051	0.536206	0.658362
1013	C	0.749533	0.515111	0.624689
1014	C	0.723114	0.979763	0.634683
1015	N	0.804942	0.537789	0.39291
1016	H	0.810052	0.525628	0.416132
1017	H	0.824873	0.560314	0.384539
1018	N	0.746091	0.97249	0.418009
1019	H	0.724809	0.951468	0.42737
1020	H	0.758958	0.988034	0.442537
1021	N	0.753618	0.527301	0.581797
1022	H	0.774901	0.548325	0.572439
1023	H	0.740763	0.511751	0.557268
1024	N	0.694751	0.962004	0.606909
1025	H	0.674812	0.939476	0.61522
1026	H	0.68966	0.974225	0.583737
1027	C	0.794884	0.575748	0.653953
1028	H	0.786443	0.585507	0.625805
1029	H	0.82244	0.583434	0.648264
1030	C	0.704804	0.924056	0.345846
1031	H	0.677247	0.916369	0.351518
1032	H	0.713229	0.914286	0.374001
1033	C	0.53616	0.762019	0.34147
1034	C	0.515066	0.765497	0.375094
1035	C	0.979714	0.756542	0.365069
1036	C	0.963549	0.737777	0.658339
1037	C	0.984649	0.734311	0.624712
1038	C	0.52	0.743265	0.634733
1039	N	0.961955	0.76718	0.392794
1040	H	0.974113	0.784486	0.415979
1041	H	0.939425	0.76456	0.384399
1042	N	0.527263	0.773687	0.417972
1043	H	0.54829	0.773447	0.42737
1044	H	0.511721	0.771043	0.442487
1045	N	0.972458	0.72614	0.581827
1046	H	0.951431	0.72638	0.572432
1047	H	0.988011	0.728803	0.557312
1048	N	0.537764	0.732626	0.607019
1049	H	0.560297	0.735238	0.615357
1050	H	0.525547	0.715278	0.583883
1051	C	0.924007	0.719051	0.65393
1052	H	0.914249	0.700819	0.625815
1053	H	0.91631	0.738906	0.648177
1054	C	0.575705	0.780742	0.345863
1055	H	0.5834	0.760884	0.351598
1056	H	0.58547	0.798972	0.373984
1057	C	0.681548	0.812412	0.639769
1058	N	0.645946	0.797837	0.639479
1059	C	0.630672	0.818203	0.639742
1060	N	0.651698	0.853805	0.639472
1061	C	0.687336	0.869078	0.639759
1062	N	0.701914	0.848054	0.639496
1063	N	0.593577	0.802155	0.638913
1064	H	0.586453	0.821073	0.63513
1065	N	0.708388	0.906173	0.638933
1066	H	0.734432	0.913296	0.6352
1067	N	0.697594	0.791364	0.638939
1068	H	0.678679	0.765324	0.63515
1069	C	0.818164	0.687397	0.693369
1070	N	0.853765	0.701969	0.693649
1071	C	0.869035	0.681601	0.693379
1072	N	0.848007	0.645999	0.693655
1073	C	0.812368	0.630728	0.693372
1074	N	0.797795	0.651758	0.693642
1075	N	0.906128	0.697643	0.694215
1076	H	0.913251	0.678725	0.698008
1077	N	0.791314	0.593633	0.694205
1078	H	0.76527	0.586513	0.697951
1079	N	0.802121	0.708447	0.694202
1080	H	0.821039	0.734488	0.698001
1081	C	0.737733	0.774087	0.674826
1082	C	0.734245	0.749498	0.708429
1083	C	0.743209	0.723109	0.698388
1084	C	0.76199	0.725735	0.991664
1085	C	0.765464	0.750317	0.958054
1086	C	0.7565	0.776702	0.968092
1087	N	0.732567	0.694701	0.726089
1088	H	0.715249	0.689535	0.749268
1089	H	0.735193	0.674796	0.717681
1090	N	0.726039	0.753482	0.751311
1091	H	0.726272	0.77474	0.760722
1092	H	0.728676	0.740571	0.775816
1093	N	0.773652	0.746322	0.915166
1094	H	0.773418	0.725061	0.905757
1095	H	0.770996	0.759222	0.890664
1096	N	0.767142	0.805121	0.940401
1097	H	0.764524	0.825033	0.948752
1098	H	0.7845	0.810266	0.917272
1099	C	0.78072	0.704924	0.987242
1100	H	0.798962	0.713414	0.959134
1101	H	0.760871	0.677372	0.981476
1102	C	0.719002	0.794901	0.679228
1103	H	0.738853	0.822453	0.68498
1104	H	0.700766	0.786424	0.707343
1105	C	0.725641	0.9636	0.674789
1106	C	0.750167	0.984687	0.708456
1107	C	0.776584	0.520038	0.698458
1108	C	0.774051	0.536206	0.991694
1109	C	0.749533	0.515111	0.958024
1110	C	0.723114	0.979763	0.968015
1111	N	0.804942	0.537789	0.726246
1112	H	0.810052	0.525628	0.749464
1113	H	0.824873	0.560314	0.717871
1114	N	0.746091	0.97249	0.751344
1115	H	0.724809	0.951468	0.760702
1116	H	0.758958	0.988034	0.775873
1117	N	0.753618	0.527301	0.915132
1118	H	0.774901	0.548325	0.905774
1119	H	0.740763	0.511751	0.8906
1120	N	0.694751	0.962004	0.940241
1121	H	0.674812	0.939476	0.948556
1122	H	0.68966	0.974225	0.917068
1123	C	0.794884	0.575748	0.987288
1124	H	0.786443	0.585507	0.959137
1125	H	0.82244	0.583434	0.981596
1126	C	0.704804	0.924056	0.679181
1127	H	0.677247	0.916369	0.68485
1128	H	0.713229	0.914286	0.707336
1129	C	0.53616	0.762019	0.674806
1130	C	0.515066	0.765497	0.708426
1131	C	0.979714	0.756542	0.698404
1132	C	0.963549	0.737777	0.991674
1133	C	0.984649	0.734311	0.958044
1134	C	0.52	0.743265	0.968065
1135	N	0.961955	0.76718	0.726129
1136	H	0.974113	0.784486	0.749314
1137	H	0.939425	0.76456	0.717734
1138	N	0.527263	0.773687	0.751307
1139	H	0.54829	0.773447	0.760702
1140	H	0.511721	0.771043	0.775819
1141	N	0.972458	0.72614	0.915159
1142	H	0.951431	0.72638	0.905767
1143	H	0.988011	0.728803	0.890647
1144	N	0.537764	0.732626	0.940354
1145	H	0.560297	0.735238	0.948689
1146	H	0.525547	0.715278	0.917215
1147	C	0.924007	0.719051	0.987262
1148	H	0.914249	0.700819	0.959147
1149	H	0.91631	0.738906	0.981513
1150	C	0.575705	0.780742	0.679198
1151	H	0.5834	0.760884	0.684934
1152	H	0.58547	0.798972	0.707316
