data_C576N432_2018-02-15_10:37:57
#******************************************
#
# CIF file created by Zeo++
# Zeo++ is an open source package to
# analyze microporous materials
#
#*******************************************

_cell_length_a		44.4754   
_cell_length_b		44.4802   
_cell_length_c		29.5072   
_cell_angle_alpha		90   
_cell_angle_beta		90   
_cell_angle_gamma		120.01   

_symmetry_space_group_name_H-M		'P1'
_symmetry_Int_Tables_number		1
_symmetry_cell_setting		Monoclinic

loop_
_symmetry_equiv_pos_as_xyz
'+x,+y,+z'

loop_
_atom_site_label
_atom_site_type_symbol
_atom_site_fract_x
_atom_site_fract_y
_atom_site_fract_z
1	N	0.137168	0.070252	0.046185
2	C	0.101904	0.052638	0.049262
3	C	0.082135	0.043157	0.008743
4	N	0.137168	0.570251	0.046185
5	C	0.101904	0.552638	0.049262
6	C	0.082134	0.543156	0.008743
7	N	0.027528	0.042236	0.007451
8	C	0.045446	0.024826	0.007203
9	N	0.027503	0.489492	0.007434
10	C	0.191681	0.097869	0.007956
11	C	0.154989	0.079508	0.339707
12	C	0.082135	0.043157	0.342076
13	N	0.099952	0.052422	0.302267
14	C	0.135216	0.070063	0.299195
15	C	0.148911	0.077185	0.258893
16	C	0.088206	0.045558	0.089568
17	N	0.075979	0.039285	0.12506
18	N	0.161122	0.083503	0.223393
19	N	0.027528	0.042236	0.340785
20	C	0.045446	0.024826	0.340538
21	N	0.027503	0.489492	0.340768
22	C	0.191681	0.097869	0.34129
23	C	0.154989	0.079508	0.67304
24	N	0.137168	0.070252	0.379518
25	C	0.101904	0.052638	0.382595
26	C	0.082135	0.043157	0.675409
27	N	0.099952	0.052422	0.635598
28	C	0.135216	0.070063	0.632528
29	C	0.148911	0.077185	0.592226
30	C	0.088206	0.045558	0.422901
31	N	0.075979	0.039285	0.458394
32	N	0.161122	0.083503	0.556726
33	N	0.027528	0.042236	0.674118
34	C	0.045446	0.024826	0.673871
35	N	0.027503	0.489492	0.674101
36	C	0.191681	0.097869	0.674623
37	C	0.154989	0.079508	0.006373
38	N	0.137168	0.070252	0.712851
39	C	0.101904	0.052638	0.715928
40	N	0.099952	0.052422	0.968931
41	C	0.135216	0.070063	0.965861
42	C	0.148911	0.077185	0.925559
43	C	0.088206	0.045558	0.756234
44	N	0.075979	0.039285	0.791727
45	N	0.161122	0.083503	0.890059
46	N	0.027528	0.542237	0.007451
47	C	0.045446	0.524827	0.007203
48	N	0.027504	0.989493	0.007434
49	C	0.191681	0.59787	0.007956
50	C	0.154988	0.579506	0.339707
51	C	0.082134	0.543156	0.342076
52	N	0.099952	0.552422	0.302267
53	C	0.135216	0.570064	0.299195
54	C	0.148911	0.577185	0.258893
55	C	0.088205	0.545558	0.089568
56	N	0.075979	0.539285	0.12506
57	N	0.161122	0.583504	0.223393
58	N	0.027528	0.542237	0.340782
59	C	0.045446	0.524827	0.340538
60	N	0.027504	0.989493	0.340768
61	C	0.191681	0.59787	0.34129
62	C	0.154988	0.579506	0.67304
63	N	0.137168	0.570251	0.379518
64	C	0.101904	0.552638	0.382595
65	C	0.082134	0.543156	0.675409
66	N	0.099952	0.552422	0.635598
67	C	0.135216	0.570064	0.632528
68	C	0.148911	0.577185	0.592226
69	C	0.088205	0.545558	0.422901
70	N	0.075979	0.539285	0.458394
71	N	0.161122	0.583504	0.556726
72	N	0.027528	0.542237	0.674118
73	C	0.045446	0.524827	0.673871
74	N	0.027504	0.989493	0.674101
75	C	0.191681	0.59787	0.674623
76	C	0.154988	0.579506	0.006373
77	N	0.137168	0.570251	0.712851
78	C	0.101904	0.552638	0.715928
79	N	0.099952	0.552422	0.968931
80	C	0.135216	0.570064	0.965861
81	C	0.148911	0.577185	0.925559
82	C	0.088205	0.545558	0.756234
83	N	0.075979	0.539285	0.791727
84	N	0.161122	0.583504	0.890059
85	C	0.244841	0.151106	0.008517
86	N	0.209523	0.080257	0.009043
87	C	0.244858	0.097867	0.009873
88	N	0.261807	0.132976	0.009577
89	C	0.266268	0.082852	0.010861
90	C	0.283616	0.08249	0.051047
91	N	0.281959	0.202388	0.047417
92	C	0.244841	0.651106	0.008517
93	N	0.209523	0.580257	0.009043
94	C	0.244857	0.597867	0.009873
95	N	0.261807	0.632976	0.009577
96	C	0.266269	0.582853	0.010861
97	C	0.283616	0.582489	0.051047
98	N	0.281959	0.702387	0.047417
99	N	0.209513	0.133334	0.007424
100	N	0.281921	0.083515	0.304299
101	C	0.274408	0.086385	0.091534
102	N	0.266345	0.090041	0.127162
103	C	0.283366	0.205357	0.300632
104	C	0.266224	0.18755	0.007512
105	C	0.27413	0.192245	0.260152
106	N	0.266029	0.180493	0.224545
107	C	0.244841	0.151106	0.341849
108	N	0.209513	0.133334	0.340758
109	N	0.209523	0.080257	0.342375
110	C	0.244858	0.097867	0.343205
111	N	0.261807	0.132976	0.34291
112	C	0.266268	0.082852	0.344195
113	N	0.281921	0.083515	0.637632
114	C	0.283616	0.08249	0.384381
115	C	0.274408	0.086385	0.424867
116	N	0.266345	0.090041	0.460495
117	C	0.283366	0.205357	0.633965
118	C	0.266224	0.18755	0.340846
119	N	0.281959	0.202388	0.380748
120	C	0.27413	0.192245	0.593487
121	N	0.266029	0.180493	0.557878
122	C	0.244841	0.151106	0.675182
123	N	0.209513	0.133334	0.674091
124	N	0.209523	0.080257	0.675707
125	C	0.244858	0.097867	0.676538
126	N	0.261807	0.132976	0.676243
127	C	0.266268	0.082852	0.677527
128	N	0.281921	0.083515	0.970965
129	C	0.283616	0.08249	0.717714
130	C	0.274408	0.086385	0.758199
131	N	0.266345	0.090041	0.793828
132	C	0.283366	0.205357	0.967298
133	C	0.266224	0.18755	0.674179
134	N	0.281959	0.202388	0.714081
135	C	0.27413	0.192245	0.926819
136	N	0.266029	0.180493	0.891211
137	N	0.209513	0.633334	0.007424
138	N	0.28192	0.583515	0.304299
139	C	0.274408	0.586386	0.091534
140	N	0.266344	0.590039	0.127162
141	C	0.283366	0.705357	0.300632
142	C	0.266223	0.687549	0.007512
143	C	0.27413	0.692246	0.260152
144	N	0.266028	0.680493	0.224545
145	C	0.244841	0.651106	0.341849
146	N	0.209513	0.633334	0.340758
147	N	0.209523	0.580257	0.342375
148	C	0.244857	0.597867	0.343205
149	N	0.261807	0.632976	0.34291
150	C	0.266269	0.582853	0.344195
151	N	0.28192	0.583515	0.637632
152	C	0.283616	0.582489	0.384381
153	C	0.274408	0.586386	0.424867
154	N	0.266344	0.590039	0.460495
155	C	0.283366	0.705357	0.633965
156	C	0.266223	0.687549	0.340846
157	N	0.281959	0.702387	0.380748
158	C	0.27413	0.692246	0.593487
159	N	0.266028	0.680493	0.557878
160	C	0.244841	0.651106	0.675182
161	N	0.209513	0.633334	0.674091
162	N	0.209523	0.580257	0.675707
163	C	0.244857	0.597867	0.676538
164	N	0.261807	0.632976	0.676243
165	C	0.266269	0.582853	0.677527
166	N	0.28192	0.583515	0.970965
167	C	0.283616	0.582489	0.717714
168	C	0.274408	0.586386	0.758199
169	N	0.266344	0.590039	0.793828
170	C	0.283366	0.705357	0.967298
171	C	0.266223	0.687549	0.674179
172	N	0.281959	0.702387	0.714081
173	C	0.27413	0.692246	0.926819
174	N	0.266028	0.680493	0.891211
175	C	0.365895	0.097867	0.008349
176	C	0.365787	0.27217	0.009949
177	N	0.314723	0.083873	0.047122
178	C	0.329339	0.250808	0.011167
179	C	0.311588	0.233586	0.051354
180	C	0.365896	0.597867	0.008349
181	C	0.365785	0.772169	0.009949
182	N	0.314723	0.583873	0.047122
183	C	0.329338	0.750807	0.011168
184	C	0.311588	0.733586	0.051354
185	C	0.311596	0.082032	0.30039
186	C	0.329448	0.082742	0.00722
187	C	0.324621	0.08566	0.259895
188	N	0.3363	0.089105	0.224272
189	N	0.314509	0.235062	0.304576
190	C	0.324725	0.242759	0.091822
191	N	0.336472	0.250792	0.127441
192	C	0.365895	0.097867	0.341683
193	C	0.365787	0.27217	0.343283
194	C	0.311596	0.082032	0.633724
195	C	0.329448	0.082742	0.340555
196	N	0.314723	0.083873	0.380454
197	C	0.324621	0.08566	0.593229
198	N	0.3363	0.089105	0.557604
199	C	0.329339	0.250808	0.3445
200	N	0.314509	0.235062	0.63791
201	C	0.311588	0.233586	0.384686
202	C	0.324725	0.242759	0.425155
203	N	0.336472	0.250792	0.460773
204	C	0.365895	0.097867	0.675016
205	C	0.365787	0.27217	0.676616
206	C	0.311596	0.082032	0.967057
207	C	0.329448	0.082742	0.673887
208	N	0.314723	0.083873	0.713786
209	C	0.324621	0.08566	0.926562
210	N	0.3363	0.089105	0.890937
211	C	0.329339	0.250808	0.677832
212	N	0.314509	0.235062	0.971243
213	C	0.311588	0.233586	0.718019
214	C	0.324725	0.242759	0.758487
215	N	0.336472	0.250792	0.794106
216	C	0.311597	0.582032	0.30039
217	C	0.329447	0.582741	0.00722
218	C	0.32462	0.585659	0.259895
219	N	0.336301	0.589105	0.224272
220	N	0.314509	0.735063	0.304576
221	C	0.324724	0.742758	0.091822
222	N	0.336472	0.750791	0.127441
223	C	0.365896	0.597867	0.341683
224	C	0.365785	0.772169	0.343283
225	C	0.311597	0.582032	0.633724
226	C	0.329447	0.582741	0.340555
227	N	0.314723	0.583873	0.380454
228	C	0.32462	0.585659	0.593229
229	N	0.336301	0.589105	0.557604
230	C	0.329338	0.750807	0.3445
231	N	0.314509	0.735063	0.63791
232	C	0.311588	0.733586	0.384686
233	C	0.324724	0.742758	0.425155
234	N	0.336472	0.750791	0.460773
235	C	0.365896	0.597867	0.675016
236	C	0.365785	0.772169	0.676616
237	C	0.311597	0.582032	0.967057
238	C	0.329447	0.582741	0.673887
239	N	0.314723	0.583873	0.713786
240	C	0.32462	0.585659	0.926562
241	N	0.336301	0.589105	0.890937
242	C	0.329338	0.750807	0.677832
243	N	0.314509	0.735063	0.971243
244	C	0.311588	0.733586	0.718019
245	C	0.324724	0.742758	0.758487
246	N	0.336472	0.750791	0.794106
247	N	0.436751	0.13346	0.009091
248	C	0.419119	0.151158	0.009873
249	N	0.384006	0.132968	0.009475
250	C	0.419058	0.272214	0.008312
251	N	0.383508	0.3075	0.009199
252	N	0.383954	0.255228	0.009502
253	N	0.446812	0.071168	0.046183
254	C	0.464422	0.053521	0.049271
255	N	0.445794	0.37986	0.04619
256	C	0.463445	0.41512	0.049269
257	C	0.43413	0.187573	0.010929
258	N	0.433022	0.235029	0.047027
259	C	0.434457	0.205344	0.051023
260	C	0.473866	0.043191	0.008759
261	C	0.473809	0.434887	0.008752
262	N	0.436751	0.633462	0.009091
263	C	0.419119	0.651158	0.009873
264	N	0.384006	0.632968	0.009475
265	C	0.419059	0.772213	0.008312
266	N	0.383509	0.807501	0.009199
267	N	0.383953	0.755228	0.009502
268	N	0.446813	0.571167	0.046183
269	C	0.464422	0.55352	0.049271
270	N	0.445792	0.879859	0.04619
271	C	0.463445	0.915118	0.049269
272	C	0.43413	0.687573	0.010929
273	N	0.433021	0.735029	0.047027
274	C	0.434457	0.705344	0.051023
275	C	0.473864	0.54319	0.008759
276	C	0.473808	0.934886	0.008752
277	C	0.744841	0.151106	0.008517
278	N	0.709524	0.080257	0.009043
279	C	0.744857	0.097867	0.009873
280	N	0.761807	0.132976	0.009577
281	C	0.865897	0.097867	0.008349
282	N	0.936751	0.13346	0.009091
283	C	0.919121	0.151158	0.009873
284	N	0.884008	0.132968	0.009475
285	C	0.919061	0.272214	0.008312
286	N	0.883508	0.3075	0.009199
287	C	0.865787	0.27217	0.009949
288	N	0.883954	0.255228	0.009502
289	N	0.63717	0.070252	0.046185
290	C	0.601904	0.052638	0.049262
291	N	0.946815	0.071168	0.046183
292	C	0.964422	0.053521	0.049271
293	N	0.945794	0.37986	0.04619
294	C	0.963447	0.41512	0.049269
295	C	0.766268	0.082852	0.010861
296	N	0.814723	0.083873	0.047122
297	C	0.783616	0.08249	0.051047
298	C	0.93413	0.187573	0.010929
299	N	0.933022	0.235029	0.047027
300	C	0.934457	0.205344	0.051023
301	C	0.829341	0.250808	0.011167
302	N	0.78196	0.202388	0.047417
303	C	0.811589	0.233586	0.051354
304	C	0.582136	0.043157	0.008743
305	C	0.973866	0.043191	0.008759
306	C	0.973809	0.434887	0.008752
307	C	0.744841	0.651106	0.008517
308	N	0.709524	0.580257	0.009043
309	C	0.744857	0.597867	0.009873
310	N	0.761807	0.632976	0.009577
311	C	0.865897	0.597867	0.008349
312	N	0.936751	0.633462	0.009091
313	C	0.919119	0.651158	0.009873
314	N	0.884008	0.632968	0.009475
315	C	0.91906	0.772213	0.008312
316	N	0.883509	0.807501	0.009199
317	C	0.865786	0.772169	0.009949
318	N	0.883954	0.755228	0.009502
319	N	0.637169	0.570251	0.046185
320	C	0.601904	0.552638	0.049262
321	N	0.946814	0.571167	0.046183
322	C	0.964422	0.55352	0.049271
323	N	0.945793	0.879859	0.04619
324	C	0.963446	0.915118	0.049269
325	C	0.766269	0.582853	0.010861
326	N	0.814723	0.583873	0.047122
327	C	0.783616	0.582489	0.051047
328	C	0.93413	0.687573	0.010929
329	N	0.933023	0.735029	0.047027
330	C	0.934457	0.705344	0.051023
331	C	0.829338	0.750807	0.011168
332	N	0.781959	0.702387	0.047417
333	C	0.811589	0.733586	0.051354
334	C	0.582135	0.543156	0.008743
335	C	0.973865	0.54319	0.008759
336	C	0.973809	0.934886	0.008752
337	C	0.492168	0.471572	0.00721
338	N	0.474773	0.489505	0.007454
339	C	0.492192	0.024837	0.007227
340	N	0.383692	0.080342	0.007288
341	C	0.419157	0.098005	0.007932
342	N	0.436604	0.307539	0.007234
343	C	0.418964	0.325354	0.007952
344	C	0.437532	0.079697	0.339701
345	C	0.473866	0.043191	0.34209
346	N	0.464572	0.051704	0.302278
347	C	0.446932	0.069321	0.299195
348	C	0.43979	0.075864	0.258889
349	C	0.471516	0.046926	0.089581
350	N	0.477797	0.04099	0.125077
351	N	0.433456	0.081734	0.223387
352	C	0.437288	0.362042	0.339714
353	C	0.473809	0.434887	0.342083
354	N	0.465316	0.417072	0.302277
355	C	0.447692	0.381812	0.299203
356	C	0.441163	0.36812	0.258901
357	C	0.470025	0.428815	0.089574
358	N	0.47595	0.441038	0.125067
359	N	0.435298	0.355909	0.223401
360	N	0.433445	0.202571	0.304373
361	C	0.434955	0.233736	0.300362
362	C	0.434192	0.250915	0.007125
363	C	0.430437	0.192259	0.091539
364	C	0.431197	0.243008	0.259859
365	N	0.427643	0.251138	0.224224
366	N	0.426676	0.18056	0.127193
367	C	0.492168	0.471572	0.340545
368	N	0.474773	0.489505	0.340789
369	C	0.492192	0.024837	0.340562
370	N	0.383692	0.080342	0.340623
371	C	0.419157	0.098005	0.341266
372	N	0.436751	0.13346	0.342422
373	C	0.419119	0.151158	0.343205
374	N	0.384006	0.132968	0.342808
375	C	0.419058	0.272214	0.341646
376	N	0.436604	0.307539	0.340568
377	C	0.418964	0.325354	0.341287
378	N	0.383508	0.3075	0.342531
379	N	0.383954	0.255228	0.342836
380	C	0.437532	0.079697	0.673033
381	N	0.446812	0.071168	0.379515
382	C	0.464422	0.053521	0.382606
383	C	0.473866	0.043191	0.675423
384	N	0.464572	0.051704	0.635612
385	C	0.446932	0.069321	0.632528
386	C	0.43979	0.075864	0.592223
387	C	0.471516	0.046926	0.422914
388	N	0.477797	0.04099	0.458411
389	N	0.433456	0.081734	0.556719
390	C	0.437288	0.362042	0.673047
391	N	0.445794	0.37986	0.379525
392	C	0.463445	0.41512	0.382602
393	C	0.473809	0.434887	0.675416
394	N	0.465316	0.417072	0.635609
395	C	0.447692	0.381812	0.632535
396	C	0.441163	0.36812	0.592233
397	C	0.470025	0.428815	0.422908
398	N	0.47595	0.441038	0.458401
399	N	0.435298	0.355909	0.556733
400	C	0.43413	0.187573	0.344262
401	N	0.433445	0.202571	0.637706
402	C	0.434955	0.233736	0.633694
403	C	0.434192	0.250915	0.34046
404	N	0.433022	0.235029	0.380359
405	C	0.434457	0.205344	0.384354
406	C	0.430437	0.192259	0.424873
407	C	0.431197	0.243008	0.593192
408	N	0.427643	0.251138	0.557556
409	N	0.426676	0.18056	0.460526
410	C	0.492168	0.471572	0.673877
411	N	0.474773	0.489505	0.674121
412	C	0.492192	0.024837	0.673894
413	N	0.383692	0.080342	0.673955
414	C	0.419157	0.098005	0.674599
415	N	0.436751	0.13346	0.675755
416	C	0.419119	0.151158	0.676538
417	N	0.384006	0.132968	0.676141
418	C	0.419058	0.272214	0.674979
419	N	0.436604	0.307539	0.673901
420	C	0.418964	0.325354	0.67462
421	N	0.383508	0.3075	0.675863
422	N	0.383954	0.255228	0.676168
423	C	0.437532	0.079697	0.006366
424	N	0.446812	0.071168	0.712848
425	C	0.464422	0.053521	0.715938
426	N	0.464572	0.051704	0.968945
427	C	0.446932	0.069321	0.965861
428	C	0.43979	0.075864	0.925555
429	C	0.471516	0.046926	0.756247
430	N	0.477797	0.04099	0.791744
431	N	0.433456	0.081734	0.890052
432	C	0.437288	0.362042	0.00638
433	N	0.445794	0.37986	0.712858
434	C	0.463445	0.41512	0.715935
435	N	0.465316	0.417072	0.968941
436	C	0.447692	0.381812	0.965868
437	C	0.441163	0.36812	0.925565
438	C	0.470025	0.428815	0.75624
439	N	0.47595	0.441038	0.791734
440	N	0.435298	0.355909	0.890066
441	C	0.43413	0.187573	0.677595
442	N	0.433445	0.202571	0.971039
443	C	0.434955	0.233736	0.967027
444	C	0.434192	0.250915	0.673793
445	N	0.433022	0.235029	0.713691
446	C	0.434457	0.205344	0.717687
447	C	0.430437	0.192259	0.758206
448	C	0.431197	0.243008	0.926525
449	N	0.427643	0.251138	0.890889
450	N	0.426676	0.18056	0.793858
451	C	0.492168	0.971571	0.00721
452	N	0.474774	0.989506	0.007454
453	C	0.492192	0.524837	0.007227
454	N	0.383691	0.580342	0.007288
455	C	0.419157	0.598005	0.007932
456	N	0.436604	0.807537	0.007234
457	C	0.418965	0.825356	0.007952
458	C	0.437532	0.579696	0.339701
459	C	0.473864	0.54319	0.34209
460	N	0.464571	0.551703	0.302278
461	C	0.446933	0.569321	0.299195
462	C	0.43979	0.575864	0.258889
463	C	0.471516	0.546926	0.089581
464	N	0.477796	0.540991	0.125077
465	N	0.433457	0.581734	0.223387
466	C	0.437287	0.862041	0.339714
467	C	0.473808	0.934886	0.342083
468	N	0.465317	0.917073	0.302277
469	C	0.447693	0.881814	0.299203
470	C	0.441162	0.868121	0.258901
471	C	0.470024	0.928813	0.089574
472	N	0.47595	0.941037	0.125067
473	N	0.435298	0.855911	0.223401
474	N	0.433446	0.702571	0.304373
475	C	0.434955	0.733736	0.300362
476	C	0.434191	0.750916	0.007125
477	C	0.430436	0.692259	0.091539
478	C	0.431197	0.743008	0.259859
479	N	0.427642	0.751137	0.224224
480	N	0.426676	0.68056	0.127193
481	C	0.492168	0.971571	0.340545
482	N	0.474774	0.989506	0.340789
483	C	0.492192	0.524837	0.340562
484	N	0.383691	0.580342	0.340623
485	C	0.419157	0.598005	0.341266
486	N	0.436751	0.633462	0.342422
487	C	0.419119	0.651158	0.343205
488	N	0.384006	0.632968	0.342808
489	C	0.419059	0.772213	0.341646
490	N	0.436604	0.807537	0.340568
491	C	0.418965	0.825356	0.341287
492	N	0.383509	0.807501	0.342531
493	N	0.383953	0.755228	0.342836
494	C	0.437532	0.579696	0.673033
495	N	0.446813	0.571167	0.379515
496	C	0.464422	0.55352	0.382606
497	C	0.473864	0.54319	0.675423
498	N	0.464571	0.551703	0.635612
499	C	0.446933	0.569321	0.632528
500	C	0.43979	0.575864	0.592223
501	C	0.471516	0.546926	0.422914
502	N	0.477796	0.540991	0.458411
503	N	0.433457	0.581734	0.556719
504	C	0.437287	0.862041	0.673047
505	N	0.445792	0.879859	0.379525
506	C	0.463445	0.915118	0.382602
507	C	0.473808	0.934886	0.675416
508	N	0.465317	0.917073	0.635609
509	C	0.447693	0.881814	0.632535
510	C	0.441162	0.868121	0.592233
511	C	0.470024	0.928813	0.422908
512	N	0.47595	0.941037	0.458401
513	N	0.435298	0.855911	0.556733
514	C	0.43413	0.687573	0.344262
515	N	0.433446	0.702571	0.637706
516	C	0.434955	0.733736	0.633694
517	C	0.434191	0.750916	0.34046
518	N	0.433021	0.735029	0.380359
519	C	0.434457	0.705344	0.384354
520	C	0.430436	0.692259	0.424873
521	C	0.431197	0.743008	0.593192
522	N	0.427642	0.751137	0.557556
523	N	0.426676	0.68056	0.460526
524	C	0.492168	0.971571	0.673877
525	N	0.474774	0.989506	0.674121
526	C	0.492192	0.524837	0.673894
527	N	0.383691	0.580342	0.673955
528	C	0.419157	0.598005	0.674599
529	N	0.436751	0.633462	0.675755
530	C	0.419119	0.651158	0.676538
531	N	0.384006	0.632968	0.676141
532	C	0.419059	0.772213	0.674979
533	N	0.436604	0.807537	0.673901
534	C	0.418965	0.825356	0.67462
535	N	0.383509	0.807501	0.675863
536	N	0.383953	0.755228	0.676168
537	C	0.437532	0.579696	0.006366
538	N	0.446813	0.571167	0.712848
539	C	0.464422	0.55352	0.715938
540	N	0.464571	0.551703	0.968945
541	C	0.446933	0.569321	0.965861
542	C	0.43979	0.575864	0.925555
543	C	0.471516	0.546926	0.756247
544	N	0.477796	0.540991	0.791744
545	N	0.433457	0.581734	0.890052
546	C	0.437287	0.862041	0.00638
547	N	0.445792	0.879859	0.712858
548	C	0.463445	0.915118	0.715935
549	N	0.465317	0.917073	0.968941
550	C	0.447693	0.881814	0.965868
551	C	0.441162	0.868121	0.925565
552	C	0.470024	0.928813	0.75624
553	N	0.47595	0.941037	0.791734
554	N	0.435298	0.855911	0.890066
555	C	0.43413	0.687573	0.677595
556	N	0.433446	0.702571	0.971039
557	C	0.434955	0.733736	0.967027
558	C	0.434191	0.750916	0.673793
559	N	0.433021	0.735029	0.713691
560	C	0.434457	0.705344	0.717687
561	C	0.430436	0.692259	0.758206
562	C	0.431197	0.743008	0.926525
563	N	0.427642	0.751137	0.890889
564	N	0.426676	0.68056	0.793858
565	C	0.99217	0.471572	0.00721
566	N	0.974773	0.489505	0.007454
567	C	0.992192	0.024837	0.007227
568	N	0.527528	0.042236	0.007451
569	C	0.545448	0.024826	0.007203
570	N	0.527503	0.489492	0.007434
571	N	0.709512	0.133334	0.007424
572	C	0.691681	0.097869	0.007956
573	N	0.883692	0.080342	0.007288
574	C	0.919157	0.098005	0.007932
575	N	0.936607	0.307539	0.007234
576	C	0.918966	0.325354	0.007952
577	C	0.654991	0.079508	0.339707
578	C	0.582136	0.043157	0.342076
579	N	0.599953	0.052422	0.302267
580	C	0.635218	0.070063	0.299195
581	C	0.648912	0.077185	0.258893
582	C	0.588206	0.045558	0.089568
583	N	0.575981	0.039285	0.12506
584	N	0.661122	0.083503	0.223393
585	C	0.937534	0.079697	0.339701
586	C	0.973866	0.043191	0.34209
587	N	0.964572	0.051704	0.302278
588	C	0.946934	0.069321	0.299195
589	C	0.939792	0.075864	0.258889
590	C	0.971516	0.046926	0.089581
591	N	0.977797	0.04099	0.125077
592	N	0.933458	0.081734	0.223387
593	C	0.937288	0.362042	0.339714
594	C	0.973809	0.434887	0.342083
595	N	0.965316	0.417072	0.302277
596	C	0.947692	0.381812	0.299203
597	C	0.941163	0.36812	0.258901
598	C	0.970025	0.428815	0.089574
599	N	0.975953	0.441038	0.125067
600	N	0.935298	0.355909	0.223401
601	N	0.781921	0.083515	0.304299
602	C	0.811598	0.082032	0.30039
603	C	0.829448	0.082742	0.00722
604	C	0.774408	0.086385	0.091534
605	C	0.824621	0.08566	0.259895
606	N	0.836303	0.089105	0.224272
607	N	0.766345	0.090041	0.127162
608	N	0.933445	0.202571	0.304373
609	C	0.934955	0.233736	0.300362
610	C	0.934192	0.250915	0.007125
611	C	0.930437	0.192259	0.091539
612	C	0.931199	0.243008	0.259859
613	N	0.927643	0.251138	0.224224
614	N	0.926676	0.18056	0.127193
615	N	0.814508	0.235062	0.304576
616	C	0.783366	0.205357	0.300632
617	C	0.766225	0.18755	0.007512
618	C	0.824726	0.242759	0.091822
619	C	0.77413	0.192245	0.260152
620	N	0.76603	0.180493	0.224545
621	N	0.836474	0.250792	0.127441
622	C	0.99217	0.471572	0.340545
623	N	0.974773	0.489505	0.340789
624	C	0.992192	0.024837	0.340562
625	N	0.527528	0.042236	0.340785
626	C	0.545448	0.024826	0.340538
627	N	0.527503	0.489492	0.340768
628	C	0.744841	0.151106	0.341849
629	N	0.709512	0.133334	0.340758
630	C	0.691681	0.097869	0.34129
631	N	0.709524	0.080257	0.342375
632	C	0.744857	0.097867	0.343205
633	N	0.761807	0.132976	0.34291
634	C	0.865897	0.097867	0.341683
635	N	0.883692	0.080342	0.340623
636	C	0.919157	0.098005	0.341266
637	N	0.936751	0.13346	0.342422
638	C	0.919121	0.151158	0.343205
639	N	0.884008	0.132968	0.342808
640	C	0.919061	0.272214	0.341646
641	N	0.936607	0.307539	0.340568
642	C	0.918966	0.325354	0.341287
643	N	0.883508	0.3075	0.342531
644	C	0.865787	0.27217	0.343283
645	N	0.883954	0.255228	0.342836
646	C	0.654991	0.079508	0.67304
647	N	0.63717	0.070252	0.379518
648	C	0.601904	0.052638	0.382595
649	C	0.582136	0.043157	0.675409
650	N	0.599953	0.052422	0.635598
651	C	0.635218	0.070063	0.632528
652	C	0.648912	0.077185	0.592226
653	C	0.588206	0.045558	0.422901
654	N	0.575981	0.039285	0.458394
655	N	0.661122	0.083503	0.556726
656	C	0.937534	0.079697	0.673033
657	N	0.946815	0.071168	0.379515
658	C	0.964422	0.053521	0.382606
659	C	0.973866	0.043191	0.675423
660	N	0.964572	0.051704	0.635612
661	C	0.946934	0.069321	0.632528
662	C	0.939792	0.075864	0.592223
663	C	0.971516	0.046926	0.422914
664	N	0.977797	0.04099	0.458411
665	N	0.933458	0.081734	0.556719
666	C	0.937288	0.362042	0.673047
667	N	0.945794	0.37986	0.379525
668	C	0.963447	0.41512	0.382602
669	C	0.973809	0.434887	0.675416
670	N	0.965316	0.417072	0.635609
671	C	0.947692	0.381812	0.632535
672	C	0.941163	0.36812	0.592233
673	C	0.970025	0.428815	0.422908
674	N	0.975953	0.441038	0.458401
675	N	0.935298	0.355909	0.556733
676	C	0.766268	0.082852	0.344195
677	N	0.781921	0.083515	0.637632
678	C	0.811598	0.082032	0.633724
679	C	0.829448	0.082742	0.340555
680	N	0.814723	0.083873	0.380454
681	C	0.783616	0.08249	0.384381
682	C	0.774408	0.086385	0.424867
683	C	0.824621	0.08566	0.593229
684	N	0.836303	0.089105	0.557604
685	N	0.766345	0.090041	0.460495
686	C	0.93413	0.187573	0.344262
687	N	0.933445	0.202571	0.637706
688	C	0.934955	0.233736	0.633694
689	C	0.934192	0.250915	0.34046
690	N	0.933022	0.235029	0.380359
691	C	0.934457	0.205344	0.384354
692	C	0.930437	0.192259	0.424873
693	C	0.931199	0.243008	0.593192
694	N	0.927643	0.251138	0.557556
695	N	0.926676	0.18056	0.460526
696	C	0.829341	0.250808	0.3445
697	N	0.814508	0.235062	0.63791
698	C	0.783366	0.205357	0.633965
699	C	0.766225	0.18755	0.340846
700	N	0.78196	0.202388	0.380748
701	C	0.811589	0.233586	0.384686
702	C	0.824726	0.242759	0.425155
703	C	0.77413	0.192245	0.593487
704	N	0.76603	0.180493	0.557878
705	N	0.836474	0.250792	0.460773
706	C	0.99217	0.471572	0.673877
707	N	0.974773	0.489505	0.674121
708	C	0.992192	0.024837	0.673894
709	N	0.527528	0.042236	0.674118
710	C	0.545448	0.024826	0.673871
711	N	0.527503	0.489492	0.674101
712	C	0.744841	0.151106	0.675182
713	N	0.709512	0.133334	0.674091
714	C	0.691681	0.097869	0.674623
715	N	0.709524	0.080257	0.675707
716	C	0.744857	0.097867	0.676538
717	N	0.761807	0.132976	0.676243
718	C	0.865897	0.097867	0.675016
719	N	0.883692	0.080342	0.673955
720	C	0.919157	0.098005	0.674599
721	N	0.936751	0.13346	0.675755
722	C	0.919121	0.151158	0.676538
723	N	0.884008	0.132968	0.676141
724	C	0.919061	0.272214	0.674979
725	N	0.936607	0.307539	0.673901
726	C	0.918966	0.325354	0.67462
727	N	0.883508	0.3075	0.675863
728	C	0.865787	0.27217	0.676616
729	N	0.883954	0.255228	0.676168
730	C	0.654991	0.079508	0.006373
731	N	0.63717	0.070252	0.712851
732	C	0.601904	0.052638	0.715928
733	N	0.599953	0.052422	0.968931
734	C	0.635218	0.070063	0.965861
735	C	0.648912	0.077185	0.925559
736	C	0.588206	0.045558	0.756234
737	N	0.575981	0.039285	0.791727
738	N	0.661122	0.083503	0.890059
739	C	0.937534	0.079697	0.006366
740	N	0.946815	0.071168	0.712848
741	C	0.964422	0.053521	0.715938
742	N	0.964572	0.051704	0.968945
743	C	0.946934	0.069321	0.965861
744	C	0.939792	0.075864	0.925555
745	C	0.971516	0.046926	0.756247
746	N	0.977797	0.04099	0.791744
747	N	0.933458	0.081734	0.890052
748	C	0.937288	0.362042	0.00638
749	N	0.945794	0.37986	0.712858
750	C	0.963447	0.41512	0.715935
751	N	0.965316	0.417072	0.968941
752	C	0.947692	0.381812	0.965868
753	C	0.941163	0.36812	0.925565
754	C	0.970025	0.428815	0.75624
755	N	0.975953	0.441038	0.791734
756	N	0.935298	0.355909	0.890066
757	C	0.766268	0.082852	0.677527
758	N	0.781921	0.083515	0.970965
759	C	0.811598	0.082032	0.967057
760	C	0.829448	0.082742	0.673887
761	N	0.814723	0.083873	0.713786
762	C	0.783616	0.08249	0.717714
763	C	0.774408	0.086385	0.758199
764	C	0.824621	0.08566	0.926562
765	N	0.836303	0.089105	0.890937
766	N	0.766345	0.090041	0.793828
767	C	0.93413	0.187573	0.677595
768	N	0.933445	0.202571	0.971039
769	C	0.934955	0.233736	0.967027
770	C	0.934192	0.250915	0.673793
771	N	0.933022	0.235029	0.713691
772	C	0.934457	0.205344	0.717687
773	C	0.930437	0.192259	0.758206
774	C	0.931199	0.243008	0.926525
775	N	0.927643	0.251138	0.890889
776	N	0.926676	0.18056	0.793858
777	C	0.829341	0.250808	0.677832
778	N	0.814508	0.235062	0.971243
779	C	0.783366	0.205357	0.967298
780	C	0.766225	0.18755	0.674179
781	N	0.78196	0.202388	0.714081
782	C	0.811589	0.233586	0.718019
783	C	0.824726	0.242759	0.758487
784	C	0.77413	0.192245	0.926819
785	N	0.76603	0.180493	0.891211
786	N	0.836474	0.250792	0.794106
787	C	0.99217	0.971571	0.00721
788	N	0.974774	0.989506	0.007454
789	C	0.992192	0.524837	0.007227
790	N	0.527528	0.542237	0.007451
791	C	0.545448	0.524827	0.007203
792	N	0.527504	0.989493	0.007434
793	N	0.709513	0.633334	0.007424
794	C	0.691681	0.59787	0.007956
795	N	0.883692	0.580342	0.007288
796	C	0.919157	0.598005	0.007932
797	N	0.936606	0.807537	0.007234
798	C	0.918967	0.825356	0.007952
799	C	0.654988	0.579506	0.339707
800	C	0.582135	0.543156	0.342076
801	N	0.599952	0.552422	0.302267
802	C	0.635216	0.570064	0.299195
803	C	0.648912	0.577185	0.258893
804	C	0.588206	0.545558	0.089568
805	N	0.575981	0.539285	0.12506
806	N	0.661123	0.583504	0.223393
807	C	0.937533	0.579696	0.339701
808	C	0.973865	0.54319	0.34209
809	N	0.964572	0.551703	0.302278
810	C	0.946934	0.569321	0.299195
811	C	0.939792	0.575864	0.258889
812	C	0.971516	0.546926	0.089581
813	N	0.977797	0.540991	0.125077
814	N	0.933458	0.581734	0.223387
815	C	0.937288	0.862041	0.339714
816	C	0.973809	0.934886	0.342083
817	N	0.965317	0.917073	0.302277
818	C	0.947693	0.881814	0.299203
819	C	0.941163	0.868121	0.258901
820	C	0.970025	0.928813	0.089574
821	N	0.97595	0.941037	0.125067
822	N	0.935299	0.855911	0.223401
823	N	0.781921	0.583515	0.304299
824	C	0.811598	0.582032	0.30039
825	C	0.829448	0.582741	0.00722
826	C	0.774408	0.586386	0.091534
827	C	0.824621	0.585659	0.259895
828	N	0.836303	0.589105	0.224272
829	N	0.766345	0.590039	0.127162
830	N	0.933445	0.702571	0.304373
831	C	0.934955	0.733736	0.300362
832	C	0.934192	0.750916	0.007125
833	C	0.930437	0.692259	0.091539
834	C	0.931197	0.743008	0.259859
835	N	0.927643	0.751137	0.224224
836	N	0.926676	0.68056	0.127193
837	N	0.814509	0.735063	0.304576
838	C	0.783366	0.705357	0.300632
839	C	0.766225	0.687549	0.007512
840	C	0.824726	0.742758	0.091822
841	C	0.77413	0.692246	0.260152
842	N	0.76603	0.680493	0.224545
843	N	0.836471	0.750791	0.127441
844	C	0.99217	0.971571	0.340545
845	N	0.974774	0.989506	0.340789
846	C	0.992192	0.524837	0.340562
847	N	0.527528	0.542237	0.340782
848	C	0.545448	0.524827	0.340538
849	N	0.527504	0.989493	0.340768
850	C	0.744841	0.651106	0.341849
851	N	0.709513	0.633334	0.340758
852	C	0.691681	0.59787	0.34129
853	N	0.709524	0.580257	0.342375
854	C	0.744857	0.597867	0.343205
855	N	0.761807	0.632976	0.34291
856	C	0.865897	0.597867	0.341683
857	N	0.883692	0.580342	0.340623
858	C	0.919157	0.598005	0.341266
859	N	0.936751	0.633462	0.342422
860	C	0.919119	0.651158	0.343205
861	N	0.884008	0.632968	0.342808
862	C	0.91906	0.772213	0.341646
863	N	0.936606	0.807537	0.340568
864	C	0.918967	0.825356	0.341287
865	N	0.883509	0.807501	0.342531
866	C	0.865786	0.772169	0.343283
867	N	0.883954	0.755228	0.342836
868	C	0.654988	0.579506	0.67304
869	N	0.637169	0.570251	0.379518
870	C	0.601904	0.552638	0.382595
871	C	0.582135	0.543156	0.675409
872	N	0.599952	0.552422	0.635598
873	C	0.635216	0.570064	0.632528
874	C	0.648912	0.577185	0.592226
875	C	0.588206	0.545558	0.422901
876	N	0.575981	0.539285	0.458394
877	N	0.661123	0.583504	0.556726
878	C	0.937533	0.579696	0.673033
879	N	0.946814	0.571167	0.379515
880	C	0.964422	0.55352	0.382606
881	C	0.973865	0.54319	0.675423
882	N	0.964572	0.551703	0.635612
883	C	0.946934	0.569321	0.632528
884	C	0.939792	0.575864	0.592223
885	C	0.971516	0.546926	0.422914
886	N	0.977797	0.540991	0.458411
887	N	0.933458	0.581734	0.556719
888	C	0.937288	0.862041	0.673047
889	N	0.945793	0.879859	0.379525
890	C	0.963446	0.915118	0.382602
891	C	0.973809	0.934886	0.675416
892	N	0.965317	0.917073	0.635609
893	C	0.947693	0.881814	0.632535
894	C	0.941163	0.868121	0.592233
895	C	0.970025	0.928813	0.422908
896	N	0.97595	0.941037	0.458401
897	N	0.935299	0.855911	0.556733
898	C	0.766269	0.582853	0.344195
899	N	0.781921	0.583515	0.637632
900	C	0.811598	0.582032	0.633724
901	C	0.829448	0.582741	0.340555
902	N	0.814723	0.583873	0.380454
903	C	0.783616	0.582489	0.384381
904	C	0.774408	0.586386	0.424867
905	C	0.824621	0.585659	0.593229
906	N	0.836303	0.589105	0.557604
907	N	0.766345	0.590039	0.460495
908	C	0.93413	0.687573	0.344262
909	N	0.933445	0.702571	0.637706
910	C	0.934955	0.733736	0.633694
911	C	0.934192	0.750916	0.34046
912	N	0.933023	0.735029	0.380359
913	C	0.934457	0.705344	0.384354
914	C	0.930437	0.692259	0.424873
915	C	0.931197	0.743008	0.593192
916	N	0.927643	0.751137	0.557556
917	N	0.926676	0.68056	0.460526
918	C	0.829338	0.750807	0.3445
919	N	0.814509	0.735063	0.63791
920	C	0.783366	0.705357	0.633965
921	C	0.766225	0.687549	0.340846
922	N	0.781959	0.702387	0.380748
923	C	0.811589	0.733586	0.384686
924	C	0.824726	0.742758	0.425155
925	C	0.77413	0.692246	0.593487
926	N	0.76603	0.680493	0.557878
927	N	0.836471	0.750791	0.460773
928	C	0.99217	0.971571	0.673877
929	N	0.974774	0.989506	0.674121
930	C	0.992192	0.524837	0.673894
931	N	0.527528	0.542237	0.674118
932	C	0.545448	0.524827	0.673871
933	N	0.527504	0.989493	0.674101
934	C	0.744841	0.651106	0.675182
935	N	0.709513	0.633334	0.674091
936	C	0.691681	0.59787	0.674623
937	N	0.709524	0.580257	0.675707
938	C	0.744857	0.597867	0.676538
939	N	0.761807	0.632976	0.676243
940	C	0.865897	0.597867	0.675016
941	N	0.883692	0.580342	0.673955
942	C	0.919157	0.598005	0.674599
943	N	0.936751	0.633462	0.675755
944	C	0.919119	0.651158	0.676538
945	N	0.884008	0.632968	0.676141
946	C	0.91906	0.772213	0.674979
947	N	0.936606	0.807537	0.673901
948	C	0.918967	0.825356	0.67462
949	N	0.883509	0.807501	0.675863
950	C	0.865786	0.772169	0.676616
951	N	0.883954	0.755228	0.676168
952	C	0.654988	0.579506	0.006373
953	N	0.637169	0.570251	0.712851
954	C	0.601904	0.552638	0.715928
955	N	0.599952	0.552422	0.968931
956	C	0.635216	0.570064	0.965861
957	C	0.648912	0.577185	0.925559
958	C	0.588206	0.545558	0.756234
959	N	0.575981	0.539285	0.791727
960	N	0.661123	0.583504	0.890059
961	C	0.937533	0.579696	0.006366
962	N	0.946814	0.571167	0.712848
963	C	0.964422	0.55352	0.715938
964	N	0.964572	0.551703	0.968945
965	C	0.946934	0.569321	0.965861
966	C	0.939792	0.575864	0.925555
967	C	0.971516	0.546926	0.756247
968	N	0.977797	0.540991	0.791744
969	N	0.933458	0.581734	0.890052
970	C	0.937288	0.862041	0.00638
971	N	0.945793	0.879859	0.712858
972	C	0.963446	0.915118	0.715935
973	N	0.965317	0.917073	0.968941
974	C	0.947693	0.881814	0.965868
975	C	0.941163	0.868121	0.925565
976	C	0.970025	0.928813	0.75624
977	N	0.97595	0.941037	0.791734
978	N	0.935299	0.855911	0.890066
979	C	0.766269	0.582853	0.677527
980	N	0.781921	0.583515	0.970965
981	C	0.811598	0.582032	0.967057
982	C	0.829448	0.582741	0.673887
983	N	0.814723	0.583873	0.713786
984	C	0.783616	0.582489	0.717714
985	C	0.774408	0.586386	0.758199
986	C	0.824621	0.585659	0.926562
987	N	0.836303	0.589105	0.890937
988	N	0.766345	0.590039	0.793828
989	C	0.93413	0.687573	0.677595
990	N	0.933445	0.702571	0.971039
991	C	0.934955	0.733736	0.967027
992	C	0.934192	0.750916	0.673793
993	N	0.933023	0.735029	0.713691
994	C	0.934457	0.705344	0.717687
995	C	0.930437	0.692259	0.758206
996	C	0.931197	0.743008	0.926525
997	N	0.927643	0.751137	0.890889
998	N	0.926676	0.68056	0.793858
999	C	0.829338	0.750807	0.677832
1000	N	0.814509	0.735063	0.971243
1001	C	0.783366	0.705357	0.967298
1002	C	0.766225	0.687549	0.674179
1003	N	0.781959	0.702387	0.714081
1004	C	0.811589	0.733586	0.718019
1005	C	0.824726	0.742758	0.758487
1006	C	0.77413	0.692246	0.926819
1007	N	0.76603	0.680493	0.891211
1008	N	0.836471	0.750791	0.794106
