data_C504H360N144_2018-02-15_10:39:19
#******************************************
#
# CIF file created by Zeo++
# Zeo++ is an open source package to
# analyze microporous materials
#
#*******************************************

_cell_length_a		44.5793   
_cell_length_b		44.5792   
_cell_length_c		29.737   
_cell_angle_alpha		90   
_cell_angle_beta		90   
_cell_angle_gamma		120   

_symmetry_space_group_name_H-M		'P1'
_symmetry_Int_Tables_number		1
_symmetry_cell_setting		Monoclinic

loop_
_symmetry_equiv_pos_as_xyz
'+x,+y,+z'

loop_
_atom_site_label
_atom_site_type_symbol
_atom_site_fract_x
_atom_site_fract_y
_atom_site_fract_z
1	C	0.079946	0.291081	0.299741
2	N	0.045017	0.273615	0.303081
3	C	0.025373	0.263791	0.007725
4	C	0.044766	0.273489	0.049279
5	C	0.081664	0.291941	0.046929
6	H	0.095995	0.299106	0.075967
7	H	0.09127	0.296744	0.268662
8	N	0.031573	0.266889	0.091921
9	H	0.046651	0.274429	0.118219
10	C	0.079946	0.291081	0.633074
11	N	0.045017	0.273615	0.636413
12	C	0.025373	0.263791	0.341057
13	C	0.044766	0.273489	0.382611
14	C	0.081664	0.291941	0.380264
15	H	0.095995	0.299106	0.409299
16	H	0.09127	0.296744	0.601995
17	N	0.031573	0.266889	0.425255
18	H	0.046651	0.274429	0.451552
19	C	0.079946	0.291081	0.966406
20	N	0.045017	0.273615	0.969746
21	C	0.025373	0.263791	0.674393
22	C	0.044766	0.273489	0.715944
23	C	0.081664	0.291941	0.713597
24	H	0.095995	0.299106	0.742634
25	H	0.09127	0.296744	0.935327
26	N	0.031573	0.266889	0.758588
27	H	0.046651	0.274429	0.784885
28	C	0.079945	0.791082	0.299741
29	N	0.045016	0.773616	0.303081
30	C	0.025373	0.763791	0.007725
31	C	0.044767	0.773489	0.049279
32	C	0.081665	0.791942	0.046929
33	H	0.095994	0.799107	0.075967
34	H	0.091269	0.796744	0.268662
35	N	0.031574	0.766889	0.091921
36	H	0.04665	0.77443	0.118219
37	C	0.079945	0.791082	0.633074
38	N	0.045016	0.773616	0.636413
39	C	0.025373	0.763791	0.341057
40	C	0.044767	0.773489	0.382611
41	C	0.081665	0.791942	0.380264
42	H	0.095994	0.799107	0.409299
43	H	0.091269	0.796744	0.601995
44	N	0.031574	0.766889	0.425255
45	H	0.04665	0.77443	0.451552
46	C	0.079945	0.791082	0.966406
47	N	0.045016	0.773616	0.969746
48	C	0.025373	0.763791	0.674393
49	C	0.044767	0.773489	0.715944
50	C	0.081665	0.791942	0.713597
51	H	0.095994	0.799107	0.742634
52	H	0.091269	0.796744	0.935327
53	N	0.031574	0.766889	0.758588
54	H	0.04665	0.77443	0.784885
55	H	0.007264	0.254725	0.098708
56	H	0.007264	0.254725	0.432041
57	H	0.007264	0.254725	0.765374
58	H	0.007264	0.754726	0.098708
59	H	0.007264	0.754726	0.432041
60	H	0.007264	0.754726	0.765374
61	C	0.136517	0.319366	0.004386
62	C	0.155075	0.35599	0.004468
63	C	0.155066	0.301292	0.004456
64	H	0.141788	0.274742	0.005003
65	H	0.141804	0.369267	0.005001
66	C	0.099782	0.301002	0.005856
67	C	0.136517	0.319366	0.337718
68	C	0.155075	0.35599	0.337802
69	C	0.155066	0.301292	0.337788
70	H	0.141788	0.274742	0.338336
71	H	0.141804	0.369267	0.338333
72	C	0.099782	0.301002	0.339191
73	C	0.136517	0.319366	0.67105
74	C	0.155075	0.35599	0.671134
75	C	0.155066	0.301292	0.671121
76	H	0.141788	0.274742	0.671669
77	H	0.141804	0.369267	0.671669
78	C	0.099782	0.301002	0.672523
79	C	0.136518	0.819367	0.004386
80	C	0.155076	0.85599	0.004468
81	C	0.155065	0.801293	0.004456
82	H	0.141788	0.774743	0.005003
83	H	0.141804	0.869268	0.005001
84	C	0.099782	0.801003	0.005856
85	C	0.136518	0.819367	0.337718
86	C	0.155076	0.85599	0.337802
87	C	0.155065	0.801293	0.337788
88	H	0.141788	0.774743	0.338336
89	H	0.141804	0.869268	0.338333
90	C	0.099782	0.801003	0.339191
91	C	0.136518	0.819367	0.67105
92	C	0.155076	0.85599	0.671134
93	C	0.155065	0.801293	0.671121
94	H	0.141788	0.774743	0.671669
95	H	0.141804	0.869268	0.671669
96	C	0.099782	0.801003	0.672523
97	C	0.1917	0.374541	0.004379
98	C	0.191689	0.319356	0.004379
99	C	0.1917	0.374541	0.337711
100	C	0.191689	0.319356	0.337714
101	C	0.1917	0.374541	0.671047
102	C	0.191689	0.319356	0.671047
103	C	0.191701	0.874542	0.004379
104	C	0.191689	0.819357	0.004379
105	C	0.191701	0.874542	0.337711
106	C	0.191689	0.819357	0.337714
107	C	0.191701	0.874542	0.671047
108	C	0.191689	0.819357	0.671047
109	C	0.209764	0.355982	0.004468
110	H	0.236313	0.369252	0.005001
111	C	0.376752	0.18948	0.004467
112	C	0.358193	0.152856	0.004376
113	C	0.321569	0.134306	0.004468
114	C	0.303504	0.152865	0.004389
115	C	0.321578	0.189488	0.004466
116	C	0.358202	0.207554	0.004389
117	H	0.276956	0.139594	0.003841
118	H	0.371479	0.234103	0.003841
119	H	0.371465	0.139579	0.003841
120	C	0.210052	0.300986	0.005854
121	C	0.219969	0.291068	0.29974
122	N	0.237438	0.273608	0.303081
123	C	0.247264	0.263791	0.007725
124	C	0.237566	0.273486	0.049279
125	C	0.219112	0.291931	0.046929
126	H	0.211946	0.299095	0.075966
127	C	0.266007	0.245058	0.334454
128	C	0.275711	0.235369	0.292901
129	C	0.294162	0.216922	0.295251
130	C	0.303216	0.20786	0.336325
131	C	0.293292	0.217771	0.04244
132	N	0.275824	0.235233	0.039099
133	H	0.301332	0.20976	0.266214
134	H	0.298949	0.212105	0.073519
135	H	0.214307	0.296728	0.26866
136	N	0.269119	0.241969	0.250259
137	H	0.256967	0.254126	0.243471
138	H	0.276662	0.234435	0.22396
139	N	0.244166	0.266894	0.091921
140	H	0.236627	0.274431	0.118219
141	H	0.256331	0.254749	0.098709
142	C	0.210073	0.411275	0.005853
143	C	0.219992	0.431111	0.299739
144	N	0.237451	0.46604	0.30308
145	C	0.247267	0.485685	0.007724
146	C	0.237572	0.466289	0.049277
147	C	0.219129	0.429391	0.046927
148	H	0.211963	0.41506	0.075963
149	C	0.265999	0.023162	0.334455
150	C	0.275688	0.042556	0.292903
151	C	0.294134	0.079454	0.295253
152	C	0.303197	0.097571	0.336325
153	C	0.293283	0.077734	0.042441
154	N	0.275821	0.042805	0.0391
155	H	0.301296	0.093786	0.266216
156	H	0.298947	0.089056	0.073521
157	H	0.214332	0.419789	0.268659
158	N	0.269087	0.029364	0.250261
159	H	0.256931	0.505054	0.243473
160	H	0.276621	0.044441	0.223962
161	N	0.244164	0.479484	0.091919
162	H	0.236628	0.464406	0.118218
163	H	0.256307	0.003791	0.098707
164	C	0.487895	0.245052	0.334455
165	C	0.468501	0.235349	0.292902
166	C	0.431604	0.216899	0.295252
167	C	0.413488	0.207845	0.336325
168	C	0.433323	0.217772	0.04244
169	N	0.468252	0.235237	0.039099
170	H	0.417272	0.20973	0.266215
171	H	0.422001	0.212116	0.07352
172	N	0.481693	0.24194	0.250261
173	H	0.006003	0.254092	0.243473
174	H	0.466617	0.234398	0.223962
175	H	0.507263	0.254725	0.098708
176	C	0.209764	0.355982	0.337802
177	H	0.236313	0.369252	0.338333
178	C	0.376752	0.18948	0.337798
179	C	0.358193	0.152856	0.337711
180	C	0.321569	0.134306	0.337802
181	C	0.303504	0.152865	0.337724
182	C	0.321578	0.189488	0.337798
183	C	0.358202	0.207554	0.337724
184	H	0.276956	0.139594	0.337176
185	H	0.371479	0.234103	0.337173
186	H	0.371465	0.139579	0.337176
187	C	0.210052	0.300986	0.339187
188	C	0.219969	0.291068	0.633074
189	N	0.237438	0.273608	0.636413
190	C	0.247264	0.263791	0.341057
191	C	0.237566	0.273486	0.382611
192	C	0.219112	0.291931	0.380261
193	H	0.211946	0.299095	0.409299
194	C	0.266007	0.245058	0.667788
195	C	0.275711	0.235369	0.626234
196	C	0.294162	0.216922	0.628584
197	C	0.303216	0.20786	0.669658
198	C	0.293292	0.217771	0.375771
199	N	0.275824	0.235233	0.372432
200	H	0.301332	0.20976	0.599547
201	H	0.298949	0.212105	0.406854
202	H	0.214307	0.296728	0.601995
203	N	0.269119	0.241969	0.583593
204	H	0.256967	0.254126	0.576804
205	H	0.276662	0.234435	0.557293
206	N	0.244166	0.266894	0.425255
207	H	0.236627	0.274431	0.451552
208	H	0.256331	0.254749	0.432041
209	C	0.210073	0.411275	0.339187
210	C	0.219992	0.431111	0.63307
211	N	0.237451	0.46604	0.636413
212	C	0.247267	0.485685	0.341057
213	C	0.237572	0.466289	0.382611
214	C	0.219129	0.429391	0.380261
215	H	0.211963	0.41506	0.409295
216	C	0.265999	0.023162	0.667788
217	C	0.275688	0.042556	0.626237
218	C	0.294134	0.079454	0.628584
219	C	0.303197	0.097571	0.669661
220	C	0.293283	0.077734	0.375775
221	N	0.275821	0.042805	0.372432
222	H	0.301296	0.093786	0.59955
223	H	0.298947	0.089056	0.406854
224	H	0.214332	0.419789	0.601991
225	N	0.269087	0.029364	0.583593
226	H	0.256931	0.505054	0.576807
227	H	0.276621	0.044441	0.557296
228	N	0.244164	0.479484	0.425252
229	H	0.236628	0.464406	0.451552
230	H	0.256307	0.003791	0.432041
231	C	0.487895	0.245052	0.667788
232	C	0.468501	0.235349	0.626234
233	C	0.431604	0.216899	0.628584
234	C	0.413488	0.207845	0.669658
235	C	0.433323	0.217772	0.375775
236	N	0.468252	0.235237	0.372432
237	H	0.417272	0.20973	0.599547
238	H	0.422001	0.212116	0.406854
239	N	0.481693	0.24194	0.583593
240	H	0.006003	0.254092	0.576807
241	H	0.466617	0.234398	0.557296
242	H	0.507263	0.254725	0.432041
243	C	0.209764	0.355982	0.671134
244	H	0.236313	0.369252	0.671666
245	C	0.376752	0.18948	0.671134
246	C	0.358193	0.152856	0.671043
247	C	0.321569	0.134306	0.671134
248	C	0.303504	0.152865	0.671057
249	C	0.321578	0.189488	0.671131
250	C	0.358202	0.207554	0.671057
251	H	0.276956	0.139594	0.670509
252	H	0.371479	0.234103	0.670509
253	H	0.371465	0.139579	0.670509
254	C	0.210052	0.300986	0.67252
255	C	0.219969	0.291068	0.966406
256	N	0.237438	0.273608	0.969746
257	C	0.247264	0.263791	0.674393
258	C	0.237566	0.273486	0.715944
259	C	0.219112	0.291931	0.713597
260	H	0.211946	0.299095	0.742631
261	C	0.266007	0.245058	0.001121
262	C	0.275711	0.235369	0.959566
263	C	0.294162	0.216922	0.961917
264	C	0.303216	0.20786	0.00299
265	C	0.293292	0.217771	0.709107
266	N	0.275824	0.235233	0.705765
267	H	0.301332	0.20976	0.932879
268	H	0.298949	0.212105	0.740186
269	H	0.214307	0.296728	0.935327
270	N	0.269119	0.241969	0.916926
271	H	0.256967	0.254126	0.910136
272	H	0.276662	0.234435	0.890625
273	N	0.244166	0.266894	0.758588
274	H	0.236627	0.274431	0.784885
275	H	0.256331	0.254749	0.765374
276	C	0.210073	0.411275	0.67252
277	C	0.219992	0.431111	0.966406
278	N	0.237451	0.46604	0.969746
279	C	0.247267	0.485685	0.674389
280	C	0.237572	0.466289	0.715944
281	C	0.219129	0.429391	0.713593
282	H	0.211963	0.41506	0.742631
283	C	0.265999	0.023162	0.001121
284	C	0.275688	0.042556	0.95957
285	C	0.294134	0.079454	0.96192
286	C	0.303197	0.097571	0.002994
287	C	0.293283	0.077734	0.709107
288	N	0.275821	0.042805	0.705765
289	H	0.301296	0.093786	0.932882
290	H	0.298947	0.089056	0.740186
291	H	0.214332	0.419789	0.935324
292	N	0.269087	0.029364	0.916926
293	H	0.256931	0.505054	0.91014
294	H	0.276621	0.044441	0.890629
295	N	0.244164	0.479484	0.758584
296	H	0.236628	0.464406	0.784885
297	H	0.256307	0.003791	0.765374
298	C	0.487895	0.245052	0.001121
299	C	0.468501	0.235349	0.95957
300	C	0.431604	0.216899	0.961917
301	C	0.413488	0.207845	0.00299
302	C	0.433323	0.217772	0.709107
303	N	0.468252	0.235237	0.705765
304	H	0.417272	0.20973	0.932882
305	H	0.422001	0.212116	0.740186
306	N	0.481693	0.24194	0.916926
307	H	0.006003	0.254092	0.91014
308	H	0.466617	0.234398	0.890629
309	H	0.507263	0.254725	0.765374
310	C	0.209763	0.85598	0.004468
311	H	0.236313	0.869252	0.005001
312	C	0.376752	0.689481	0.004467
313	C	0.358193	0.652857	0.004376
314	C	0.321569	0.634306	0.004468
315	C	0.303504	0.652865	0.004389
316	C	0.321578	0.689488	0.004466
317	C	0.358202	0.707555	0.004389
318	H	0.276956	0.639596	0.003841
319	H	0.371479	0.734102	0.003841
320	H	0.371464	0.63958	0.003841
321	C	0.210051	0.800984	0.005854
322	C	0.219968	0.791066	0.29974
323	N	0.237438	0.773608	0.303081
324	C	0.247264	0.763791	0.007725
325	C	0.237566	0.773487	0.049279
326	C	0.219111	0.791929	0.046929
327	H	0.211946	0.799096	0.075966
328	C	0.266007	0.745059	0.334454
329	C	0.275711	0.735369	0.292901
330	C	0.294161	0.716921	0.295251
331	C	0.303216	0.707861	0.336325
332	C	0.293291	0.717771	0.04244
333	N	0.275825	0.735234	0.039099
334	H	0.301331	0.709759	0.266214
335	H	0.298948	0.712106	0.073519
336	H	0.214307	0.796729	0.26866
337	N	0.269118	0.741969	0.250259
338	H	0.256967	0.754127	0.243471
339	H	0.276662	0.734436	0.22396
340	N	0.244166	0.766895	0.091921
341	H	0.236627	0.774432	0.118219
342	H	0.25633	0.754749	0.098709
343	C	0.210072	0.911276	0.005853
344	C	0.219993	0.931112	0.299739
345	N	0.23745	0.966041	0.30308
346	C	0.247268	0.985685	0.007724
347	C	0.237572	0.96629	0.049277
348	C	0.219128	0.929392	0.046927
349	H	0.211962	0.91506	0.075963
350	C	0.265998	0.523163	0.334455
351	C	0.275687	0.542555	0.292903
352	C	0.294135	0.579456	0.295253
353	C	0.303197	0.597572	0.336325
354	C	0.293283	0.577736	0.042441
355	N	0.275821	0.542804	0.0391
356	H	0.301297	0.593787	0.266216
357	H	0.298948	0.589058	0.073521
358	H	0.214332	0.91979	0.268659
359	N	0.269088	0.529363	0.250261
360	H	0.256932	0.005054	0.243473
361	H	0.276622	0.544441	0.223962
362	N	0.244164	0.979482	0.091919
363	H	0.236629	0.964407	0.118218
364	H	0.256309	0.503793	0.098707
365	C	0.487895	0.745051	0.334455
366	C	0.468501	0.735348	0.292902
367	C	0.431604	0.716901	0.295252
368	C	0.413486	0.707845	0.336325
369	C	0.433323	0.717774	0.04244
370	N	0.468252	0.735237	0.039099
371	H	0.417272	0.709731	0.266215
372	H	0.422	0.712117	0.07352
373	N	0.481694	0.74194	0.250261
374	H	0.006003	0.754091	0.243473
375	H	0.466617	0.734398	0.223962
376	H	0.507264	0.754726	0.098708
377	C	0.209763	0.85598	0.337802
378	H	0.236313	0.869252	0.338333
379	C	0.376752	0.689481	0.337798
380	C	0.358193	0.652857	0.337711
381	C	0.321569	0.634306	0.337802
382	C	0.303504	0.652865	0.337724
383	C	0.321578	0.689488	0.337798
384	C	0.358202	0.707555	0.337724
385	H	0.276956	0.639596	0.337176
386	H	0.371479	0.734102	0.337173
387	H	0.371464	0.63958	0.337176
388	C	0.210051	0.800984	0.339187
389	C	0.219968	0.791066	0.633074
390	N	0.237438	0.773608	0.636413
391	C	0.247264	0.763791	0.341057
392	C	0.237566	0.773487	0.382611
393	C	0.219111	0.791929	0.380261
394	H	0.211946	0.799096	0.409299
395	C	0.266007	0.745059	0.667788
396	C	0.275711	0.735369	0.626234
397	C	0.294161	0.716921	0.628584
398	C	0.303216	0.707861	0.669658
399	C	0.293291	0.717771	0.375771
400	N	0.275825	0.735234	0.372432
401	H	0.301331	0.709759	0.599547
402	H	0.298948	0.712106	0.406854
403	H	0.214307	0.796729	0.601995
404	N	0.269118	0.741969	0.583593
405	H	0.256967	0.754127	0.576804
406	H	0.276662	0.734436	0.557293
407	N	0.244166	0.766895	0.425255
408	H	0.236627	0.774432	0.451552
409	H	0.25633	0.754749	0.432041
410	C	0.210072	0.911276	0.339187
411	C	0.219993	0.931112	0.63307
412	N	0.23745	0.966041	0.636413
413	C	0.247268	0.985685	0.341057
414	C	0.237572	0.96629	0.382611
415	C	0.219128	0.929392	0.380261
416	H	0.211962	0.91506	0.409295
417	C	0.265998	0.523163	0.667788
418	C	0.275687	0.542555	0.626237
419	C	0.294135	0.579456	0.628584
420	C	0.303197	0.597572	0.669661
421	C	0.293283	0.577736	0.375775
422	N	0.275821	0.542804	0.372432
423	H	0.301297	0.593787	0.59955
424	H	0.298948	0.589058	0.406854
425	H	0.214332	0.91979	0.601991
426	N	0.269088	0.529363	0.583593
427	H	0.256932	0.005054	0.576807
428	H	0.276622	0.544441	0.557296
429	N	0.244164	0.979482	0.425252
430	H	0.236629	0.964407	0.451552
431	H	0.256309	0.503793	0.432041
432	C	0.487895	0.745051	0.667788
433	C	0.468501	0.735348	0.626234
434	C	0.431604	0.716901	0.628584
435	C	0.413486	0.707845	0.669658
436	C	0.433323	0.717774	0.375775
437	N	0.468252	0.735237	0.372432
438	H	0.417272	0.709731	0.599547
439	H	0.422	0.712117	0.406854
440	N	0.481694	0.74194	0.583593
441	H	0.006003	0.754091	0.576807
442	H	0.466617	0.734398	0.557296
443	H	0.507264	0.754726	0.432041
444	C	0.209763	0.85598	0.671134
445	H	0.236313	0.869252	0.671666
446	C	0.376752	0.689481	0.671134
447	C	0.358193	0.652857	0.671043
448	C	0.321569	0.634306	0.671134
449	C	0.303504	0.652865	0.671057
450	C	0.321578	0.689488	0.671131
451	C	0.358202	0.707555	0.671057
452	H	0.276956	0.639596	0.670509
453	H	0.371479	0.734102	0.670509
454	H	0.371464	0.63958	0.670509
455	C	0.210051	0.800984	0.67252
456	C	0.219968	0.791066	0.966406
457	N	0.237438	0.773608	0.969746
458	C	0.247264	0.763791	0.674393
459	C	0.237566	0.773487	0.715944
460	C	0.219111	0.791929	0.713597
461	H	0.211946	0.799096	0.742631
462	C	0.266007	0.745059	0.001121
463	C	0.275711	0.735369	0.959566
464	C	0.294161	0.716921	0.961917
465	C	0.303216	0.707861	0.00299
466	C	0.293291	0.717771	0.709107
467	N	0.275825	0.735234	0.705765
468	H	0.301331	0.709759	0.932879
469	H	0.298948	0.712106	0.740186
470	H	0.214307	0.796729	0.935327
471	N	0.269118	0.741969	0.916926
472	H	0.256967	0.754127	0.910136
473	H	0.276662	0.734436	0.890625
474	N	0.244166	0.766895	0.758588
475	H	0.236627	0.774432	0.784885
476	H	0.25633	0.754749	0.765374
477	C	0.210072	0.911276	0.67252
478	C	0.219993	0.931112	0.966406
479	N	0.23745	0.966041	0.969746
480	C	0.247268	0.985685	0.674389
481	C	0.237572	0.96629	0.715944
482	C	0.219128	0.929392	0.713593
483	H	0.211962	0.91506	0.742631
484	C	0.265998	0.523163	0.001121
485	C	0.275687	0.542555	0.95957
486	C	0.294135	0.579456	0.96192
487	C	0.303197	0.597572	0.002994
488	C	0.293283	0.577736	0.709107
489	N	0.275821	0.542804	0.705765
490	H	0.301297	0.593787	0.932882
491	H	0.298948	0.589058	0.740186
492	H	0.214332	0.91979	0.935324
493	N	0.269088	0.529363	0.916926
494	H	0.256932	0.005054	0.91014
495	H	0.276622	0.544441	0.890629
496	N	0.244164	0.979482	0.758584
497	H	0.236629	0.964407	0.784885
498	H	0.256309	0.503793	0.765374
499	C	0.487895	0.745051	0.001121
500	C	0.468501	0.735348	0.95957
501	C	0.431604	0.716901	0.961917
502	C	0.413486	0.707845	0.00299
503	C	0.433323	0.717774	0.709107
504	N	0.468252	0.735237	0.705765
505	H	0.417272	0.709731	0.932882
506	H	0.422	0.712117	0.740186
507	N	0.481694	0.74194	0.916926
508	H	0.006003	0.754091	0.91014
509	H	0.466617	0.734398	0.890629
510	H	0.507264	0.754726	0.765374
511	C	0.636516	0.319366	0.004386
512	C	0.655075	0.35599	0.004468
513	C	0.691699	0.374541	0.004379
514	C	0.709764	0.355982	0.004468
515	C	0.691687	0.319356	0.004379
516	C	0.655066	0.301292	0.004456
517	H	0.736312	0.369252	0.005001
518	H	0.641787	0.274742	0.005003
519	H	0.641803	0.369267	0.005001
520	C	0.876751	0.18948	0.004467
521	C	0.858192	0.152856	0.004376
522	C	0.821568	0.134306	0.004468
523	C	0.803503	0.152865	0.004389
524	C	0.821579	0.189488	0.004466
525	C	0.858201	0.207554	0.004389
526	H	0.776955	0.139594	0.003841
527	H	0.87148	0.234103	0.003841
528	H	0.871464	0.139579	0.003841
529	C	0.710051	0.300986	0.005854
530	C	0.719969	0.291068	0.29974
531	N	0.737437	0.273608	0.303081
532	C	0.747264	0.263791	0.007725
533	C	0.737564	0.273486	0.049279
534	C	0.719112	0.291931	0.046929
535	H	0.711945	0.299095	0.075966
536	C	0.766007	0.245058	0.334454
537	C	0.775711	0.235369	0.292901
538	C	0.794163	0.216922	0.295251
539	C	0.803216	0.20786	0.336325
540	C	0.79329	0.217771	0.04244
541	N	0.775823	0.235233	0.039099
542	H	0.801331	0.20976	0.266214
543	H	0.798948	0.212105	0.073519
544	H	0.714306	0.296728	0.26866
545	N	0.769119	0.241969	0.250259
546	H	0.756965	0.254126	0.243471
547	H	0.77666	0.234435	0.22396
548	N	0.744165	0.266894	0.091921
549	H	0.736626	0.274431	0.118219
550	H	0.75633	0.254749	0.098709
551	C	0.710073	0.411275	0.005853
552	C	0.719991	0.431111	0.299739
553	N	0.737451	0.46604	0.30308
554	C	0.747266	0.485685	0.007724
555	C	0.737571	0.466289	0.049277
556	C	0.719129	0.429391	0.046927
557	H	0.711963	0.41506	0.075963
558	C	0.765998	0.023162	0.334455
559	C	0.775686	0.042556	0.292903
560	C	0.794133	0.079454	0.295253
561	C	0.803196	0.097571	0.336325
562	C	0.793282	0.077734	0.042441
563	N	0.775822	0.042805	0.0391
564	H	0.801297	0.093786	0.266216
565	H	0.798948	0.089056	0.073521
566	H	0.71433	0.419789	0.268659
567	N	0.769088	0.029364	0.250261
568	H	0.756931	0.505054	0.243473
569	H	0.776622	0.044441	0.223962
570	N	0.744164	0.479484	0.091919
571	H	0.736627	0.464406	0.118218
572	H	0.756306	0.003791	0.098707
573	C	0.599781	0.301002	0.005856
574	C	0.579946	0.291081	0.299741
575	N	0.545017	0.273615	0.303081
576	C	0.525371	0.263791	0.007725
577	C	0.544765	0.273489	0.049279
578	C	0.581664	0.291941	0.046929
579	H	0.595995	0.299106	0.075967
580	C	0.987896	0.245052	0.334455
581	C	0.968502	0.235349	0.292902
582	C	0.931603	0.216899	0.295252
583	C	0.913486	0.207845	0.336325
584	C	0.933322	0.217772	0.04244
585	N	0.968251	0.235237	0.039099
586	H	0.917271	0.20973	0.266215
587	H	0.921999	0.212116	0.07352
588	H	0.59127	0.296744	0.268662
589	N	0.981695	0.24194	0.250261
590	H	0.506004	0.254092	0.243473
591	H	0.966618	0.234398	0.223962
592	N	0.531573	0.266889	0.091921
593	H	0.546651	0.274429	0.118219
594	C	0.636516	0.319366	0.337718
595	C	0.655075	0.35599	0.337802
596	C	0.691699	0.374541	0.337711
597	C	0.709764	0.355982	0.337802
598	C	0.691687	0.319356	0.337714
599	C	0.655066	0.301292	0.337788
600	H	0.736312	0.369252	0.338333
601	H	0.641787	0.274742	0.338336
602	H	0.641803	0.369267	0.338333
603	C	0.876751	0.18948	0.337798
604	C	0.858192	0.152856	0.337711
605	C	0.821568	0.134306	0.337802
606	C	0.803503	0.152865	0.337724
607	C	0.821579	0.189488	0.337798
608	C	0.858201	0.207554	0.337724
609	H	0.776955	0.139594	0.337176
610	H	0.87148	0.234103	0.337173
611	H	0.871464	0.139579	0.337176
612	C	0.710051	0.300986	0.339187
613	C	0.719969	0.291068	0.633074
614	N	0.737437	0.273608	0.636413
615	C	0.747264	0.263791	0.341057
616	C	0.737564	0.273486	0.382611
617	C	0.719112	0.291931	0.380261
618	H	0.711945	0.299095	0.409299
619	C	0.766007	0.245058	0.667788
620	C	0.775711	0.235369	0.626234
621	C	0.794163	0.216922	0.628584
622	C	0.803216	0.20786	0.669658
623	C	0.79329	0.217771	0.375771
624	N	0.775823	0.235233	0.372432
625	H	0.801331	0.20976	0.599547
626	H	0.798948	0.212105	0.406854
627	H	0.714306	0.296728	0.601995
628	N	0.769119	0.241969	0.583593
629	H	0.756965	0.254126	0.576804
630	H	0.77666	0.234435	0.557293
631	N	0.744165	0.266894	0.425255
632	H	0.736626	0.274431	0.451552
633	H	0.75633	0.254749	0.432041
634	C	0.710073	0.411275	0.339187
635	C	0.719991	0.431111	0.63307
636	N	0.737451	0.46604	0.636413
637	C	0.747266	0.485685	0.341057
638	C	0.737571	0.466289	0.382611
639	C	0.719129	0.429391	0.380261
640	H	0.711963	0.41506	0.409295
641	C	0.765998	0.023162	0.667788
642	C	0.775686	0.042556	0.626237
643	C	0.794133	0.079454	0.628584
644	C	0.803196	0.097571	0.669661
645	C	0.793282	0.077734	0.375775
646	N	0.775822	0.042805	0.372432
647	H	0.801297	0.093786	0.59955
648	H	0.798948	0.089056	0.406854
649	H	0.71433	0.419789	0.601991
650	N	0.769088	0.029364	0.583593
651	H	0.756931	0.505054	0.576807
652	H	0.776622	0.044441	0.557296
653	N	0.744164	0.479484	0.425252
654	H	0.736627	0.464406	0.451552
655	H	0.756306	0.003791	0.432041
656	C	0.599781	0.301002	0.339191
657	C	0.579946	0.291081	0.633074
658	N	0.545017	0.273615	0.636413
659	C	0.525371	0.263791	0.341057
660	C	0.544765	0.273489	0.382611
661	C	0.581664	0.291941	0.380264
662	H	0.595995	0.299106	0.409299
663	C	0.987896	0.245052	0.667788
664	C	0.968502	0.235349	0.626234
665	C	0.931603	0.216899	0.628584
666	C	0.913486	0.207845	0.669658
667	C	0.933322	0.217772	0.375775
668	N	0.968251	0.235237	0.372432
669	H	0.917271	0.20973	0.599547
670	H	0.921999	0.212116	0.406854
671	H	0.59127	0.296744	0.601995
672	N	0.981695	0.24194	0.583593
673	H	0.506004	0.254092	0.576807
674	H	0.966618	0.234398	0.557296
675	N	0.531573	0.266889	0.425255
676	H	0.546651	0.274429	0.451552
677	C	0.636516	0.319366	0.67105
678	C	0.655075	0.35599	0.671134
679	C	0.691699	0.374541	0.671047
680	C	0.709764	0.355982	0.671134
681	C	0.691687	0.319356	0.671047
682	C	0.655066	0.301292	0.671121
683	H	0.736312	0.369252	0.671666
684	H	0.641787	0.274742	0.671669
685	H	0.641803	0.369267	0.671669
686	C	0.876751	0.18948	0.671134
687	C	0.858192	0.152856	0.671043
688	C	0.821568	0.134306	0.671134
689	C	0.803503	0.152865	0.671057
690	C	0.821579	0.189488	0.671131
691	C	0.858201	0.207554	0.671057
692	H	0.776955	0.139594	0.670509
693	H	0.87148	0.234103	0.670509
694	H	0.871464	0.139579	0.670509
695	C	0.710051	0.300986	0.67252
696	C	0.719969	0.291068	0.966406
697	N	0.737437	0.273608	0.969746
698	C	0.747264	0.263791	0.674393
699	C	0.737564	0.273486	0.715944
700	C	0.719112	0.291931	0.713597
701	H	0.711945	0.299095	0.742631
702	C	0.766007	0.245058	0.001121
703	C	0.775711	0.235369	0.959566
704	C	0.794163	0.216922	0.961917
705	C	0.803216	0.20786	0.00299
706	C	0.79329	0.217771	0.709107
707	N	0.775823	0.235233	0.705765
708	H	0.801331	0.20976	0.932879
709	H	0.798948	0.212105	0.740186
710	H	0.714306	0.296728	0.935327
711	N	0.769119	0.241969	0.916926
712	H	0.756965	0.254126	0.910136
713	H	0.77666	0.234435	0.890625
714	N	0.744165	0.266894	0.758588
715	H	0.736626	0.274431	0.784885
716	H	0.75633	0.254749	0.765374
717	C	0.710073	0.411275	0.67252
718	C	0.719991	0.431111	0.966406
719	N	0.737451	0.46604	0.969746
720	C	0.747266	0.485685	0.674389
721	C	0.737571	0.466289	0.715944
722	C	0.719129	0.429391	0.713593
723	H	0.711963	0.41506	0.742631
724	C	0.765998	0.023162	0.001121
725	C	0.775686	0.042556	0.95957
726	C	0.794133	0.079454	0.96192
727	C	0.803196	0.097571	0.002994
728	C	0.793282	0.077734	0.709107
729	N	0.775822	0.042805	0.705765
730	H	0.801297	0.093786	0.932882
731	H	0.798948	0.089056	0.740186
732	H	0.71433	0.419789	0.935324
733	N	0.769088	0.029364	0.916926
734	H	0.756931	0.505054	0.91014
735	H	0.776622	0.044441	0.890629
736	N	0.744164	0.479484	0.758584
737	H	0.736627	0.464406	0.784885
738	H	0.756306	0.003791	0.765374
739	C	0.599781	0.301002	0.672523
740	C	0.579946	0.291081	0.966406
741	N	0.545017	0.273615	0.969746
742	C	0.525371	0.263791	0.674393
743	C	0.544765	0.273489	0.715944
744	C	0.581664	0.291941	0.713597
745	H	0.595995	0.299106	0.742634
746	C	0.987896	0.245052	0.001121
747	C	0.968502	0.235349	0.95957
748	C	0.931603	0.216899	0.961917
749	C	0.913486	0.207845	0.00299
750	C	0.933322	0.217772	0.709107
751	N	0.968251	0.235237	0.705765
752	H	0.917271	0.20973	0.932882
753	H	0.921999	0.212116	0.740186
754	H	0.59127	0.296744	0.935327
755	N	0.981695	0.24194	0.916926
756	H	0.506004	0.254092	0.91014
757	H	0.966618	0.234398	0.890629
758	N	0.531573	0.266889	0.758588
759	H	0.546651	0.274429	0.784885
760	C	0.636517	0.819367	0.004386
761	C	0.655075	0.85599	0.004468
762	C	0.6917	0.874542	0.004379
763	C	0.709763	0.85598	0.004468
764	C	0.691687	0.819357	0.004379
765	C	0.655066	0.801293	0.004456
766	H	0.736312	0.869252	0.005001
767	H	0.641787	0.774743	0.005003
768	H	0.641804	0.869268	0.005001
769	C	0.876751	0.689481	0.004467
770	C	0.858193	0.652857	0.004376
771	C	0.821568	0.634306	0.004468
772	C	0.803503	0.652865	0.004389
773	C	0.821577	0.689488	0.004466
774	C	0.858201	0.707555	0.004389
775	H	0.776955	0.639596	0.003841
776	H	0.871477	0.734102	0.003841
777	H	0.871465	0.63958	0.003841
778	C	0.71005	0.800984	0.005854
779	C	0.719968	0.791066	0.29974
780	N	0.737437	0.773608	0.303081
781	C	0.747264	0.763791	0.007725
782	C	0.737564	0.773487	0.049279
783	C	0.719111	0.791929	0.046929
784	H	0.711946	0.799096	0.075966
785	C	0.766007	0.745059	0.334454
786	C	0.775709	0.735369	0.292901
787	C	0.79416	0.716921	0.295251
788	C	0.803217	0.707861	0.336325
789	C	0.79329	0.717771	0.04244
790	N	0.775824	0.735234	0.039099
791	H	0.801331	0.709759	0.266214
792	H	0.798948	0.712106	0.073519
793	H	0.714306	0.796729	0.26866
794	N	0.769117	0.741969	0.250259
795	H	0.756966	0.754127	0.243471
796	H	0.776661	0.734436	0.22396
797	N	0.744165	0.766895	0.091921
798	H	0.736626	0.774432	0.118219
799	H	0.75633	0.754749	0.098709
800	C	0.710071	0.911276	0.005853
801	C	0.719991	0.931112	0.299739
802	N	0.737451	0.966041	0.30308
803	C	0.747267	0.985685	0.007724
804	C	0.737571	0.96629	0.049277
805	C	0.719129	0.929392	0.046927
806	H	0.711963	0.91506	0.075963
807	C	0.765999	0.523163	0.334455
808	C	0.775686	0.542555	0.292903
809	C	0.794134	0.579456	0.295253
810	C	0.803196	0.597572	0.336325
811	C	0.793283	0.577736	0.042441
812	N	0.775822	0.542804	0.0391
813	H	0.801295	0.593787	0.266216
814	H	0.798948	0.589058	0.073521
815	H	0.714331	0.91979	0.268659
816	N	0.769088	0.529363	0.250261
817	H	0.756931	0.005054	0.243473
818	H	0.776622	0.544441	0.223962
819	N	0.744163	0.979482	0.091919
820	H	0.736628	0.964407	0.118218
821	H	0.756309	0.503793	0.098707
822	C	0.599781	0.801003	0.005856
823	C	0.579945	0.791082	0.299741
824	N	0.545016	0.773616	0.303081
825	C	0.525372	0.763791	0.007725
826	C	0.544766	0.773489	0.049279
827	C	0.581664	0.791942	0.046929
828	H	0.595995	0.799107	0.075967
829	C	0.987893	0.745051	0.334455
830	C	0.968499	0.735348	0.292902
831	C	0.931603	0.716901	0.295252
832	C	0.913486	0.707845	0.336325
833	C	0.933323	0.717774	0.04244
834	N	0.968251	0.735237	0.039099
835	H	0.917271	0.709731	0.266215
836	H	0.922	0.712117	0.07352
837	H	0.591269	0.796744	0.268662
838	N	0.981695	0.74194	0.250261
839	H	0.506003	0.754091	0.243473
840	H	0.966617	0.734398	0.223962
841	N	0.531573	0.766889	0.091921
842	H	0.54665	0.77443	0.118219
843	C	0.636517	0.819367	0.337718
844	C	0.655075	0.85599	0.337802
845	C	0.6917	0.874542	0.337711
846	C	0.709763	0.85598	0.337802
847	C	0.691687	0.819357	0.337714
848	C	0.655066	0.801293	0.337788
849	H	0.736312	0.869252	0.338333
850	H	0.641787	0.774743	0.338336
851	H	0.641804	0.869268	0.338333
852	C	0.876751	0.689481	0.337798
853	C	0.858193	0.652857	0.337711
854	C	0.821568	0.634306	0.337802
855	C	0.803503	0.652865	0.337724
856	C	0.821577	0.689488	0.337798
857	C	0.858201	0.707555	0.337724
858	H	0.776955	0.639596	0.337176
859	H	0.871477	0.734102	0.337173
860	H	0.871465	0.63958	0.337176
861	C	0.71005	0.800984	0.339187
862	C	0.719968	0.791066	0.633074
863	N	0.737437	0.773608	0.636413
864	C	0.747264	0.763791	0.341057
865	C	0.737564	0.773487	0.382611
866	C	0.719111	0.791929	0.380261
867	H	0.711946	0.799096	0.409299
868	C	0.766007	0.745059	0.667788
869	C	0.775709	0.735369	0.626234
870	C	0.79416	0.716921	0.628584
871	C	0.803217	0.707861	0.669658
872	C	0.79329	0.717771	0.375771
873	N	0.775824	0.735234	0.372432
874	H	0.801331	0.709759	0.599547
875	H	0.798948	0.712106	0.406854
876	H	0.714306	0.796729	0.601995
877	N	0.769117	0.741969	0.583593
878	H	0.756966	0.754127	0.576804
879	H	0.776661	0.734436	0.557293
880	N	0.744165	0.766895	0.425255
881	H	0.736626	0.774432	0.451552
882	H	0.75633	0.754749	0.432041
883	C	0.710071	0.911276	0.339187
884	C	0.719991	0.931112	0.63307
885	N	0.737451	0.966041	0.636413
886	C	0.747267	0.985685	0.341057
887	C	0.737571	0.96629	0.382611
888	C	0.719129	0.929392	0.380261
889	H	0.711963	0.91506	0.409295
890	C	0.765999	0.523163	0.667788
891	C	0.775686	0.542555	0.626237
892	C	0.794134	0.579456	0.628584
893	C	0.803196	0.597572	0.669661
894	C	0.793283	0.577736	0.375775
895	N	0.775822	0.542804	0.372432
896	H	0.801295	0.593787	0.59955
897	H	0.798948	0.589058	0.406854
898	H	0.714331	0.91979	0.601991
899	N	0.769088	0.529363	0.583593
900	H	0.756931	0.005054	0.576807
901	H	0.776622	0.544441	0.557296
902	N	0.744163	0.979482	0.425252
903	H	0.736628	0.964407	0.451552
904	H	0.756309	0.503793	0.432041
905	C	0.599781	0.801003	0.339191
906	C	0.579945	0.791082	0.633074
907	N	0.545016	0.773616	0.636413
908	C	0.525372	0.763791	0.341057
909	C	0.544766	0.773489	0.382611
910	C	0.581664	0.791942	0.380264
911	H	0.595995	0.799107	0.409299
912	C	0.987893	0.745051	0.667788
913	C	0.968499	0.735348	0.626234
914	C	0.931603	0.716901	0.628584
915	C	0.913486	0.707845	0.669658
916	C	0.933323	0.717774	0.375775
917	N	0.968251	0.735237	0.372432
918	H	0.917271	0.709731	0.599547
919	H	0.922	0.712117	0.406854
920	H	0.591269	0.796744	0.601995
921	N	0.981695	0.74194	0.583593
922	H	0.506003	0.754091	0.576807
923	H	0.966617	0.734398	0.557296
924	N	0.531573	0.766889	0.425255
925	H	0.54665	0.77443	0.451552
926	C	0.636517	0.819367	0.67105
927	C	0.655075	0.85599	0.671134
928	C	0.6917	0.874542	0.671047
929	C	0.709763	0.85598	0.671134
930	C	0.691687	0.819357	0.671047
931	C	0.655066	0.801293	0.671121
932	H	0.736312	0.869252	0.671666
933	H	0.641787	0.774743	0.671669
934	H	0.641804	0.869268	0.671669
935	C	0.876751	0.689481	0.671134
936	C	0.858193	0.652857	0.671043
937	C	0.821568	0.634306	0.671134
938	C	0.803503	0.652865	0.671057
939	C	0.821577	0.689488	0.671131
940	C	0.858201	0.707555	0.671057
941	H	0.776955	0.639596	0.670509
942	H	0.871477	0.734102	0.670509
943	H	0.871465	0.63958	0.670509
944	C	0.71005	0.800984	0.67252
945	C	0.719968	0.791066	0.966406
946	N	0.737437	0.773608	0.969746
947	C	0.747264	0.763791	0.674393
948	C	0.737564	0.773487	0.715944
949	C	0.719111	0.791929	0.713597
950	H	0.711946	0.799096	0.742631
951	C	0.766007	0.745059	0.001121
952	C	0.775709	0.735369	0.959566
953	C	0.79416	0.716921	0.961917
954	C	0.803217	0.707861	0.00299
955	C	0.79329	0.717771	0.709107
956	N	0.775824	0.735234	0.705765
957	H	0.801331	0.709759	0.932879
958	H	0.798948	0.712106	0.740186
959	H	0.714306	0.796729	0.935327
960	N	0.769117	0.741969	0.916926
961	H	0.756966	0.754127	0.910136
962	H	0.776661	0.734436	0.890625
963	N	0.744165	0.766895	0.758588
964	H	0.736626	0.774432	0.784885
965	H	0.75633	0.754749	0.765374
966	C	0.710071	0.911276	0.67252
967	C	0.719991	0.931112	0.966406
968	N	0.737451	0.966041	0.969746
969	C	0.747267	0.985685	0.674389
970	C	0.737571	0.96629	0.715944
971	C	0.719129	0.929392	0.713593
972	H	0.711963	0.91506	0.742631
973	C	0.765999	0.523163	0.001121
974	C	0.775686	0.542555	0.95957
975	C	0.794134	0.579456	0.96192
976	C	0.803196	0.597572	0.002994
977	C	0.793283	0.577736	0.709107
978	N	0.775822	0.542804	0.705765
979	H	0.801295	0.593787	0.932882
980	H	0.798948	0.589058	0.740186
981	H	0.714331	0.91979	0.935324
982	N	0.769088	0.529363	0.916926
983	H	0.756931	0.005054	0.91014
984	H	0.776622	0.544441	0.890629
985	N	0.744163	0.979482	0.758584
986	H	0.736628	0.964407	0.784885
987	H	0.756309	0.503793	0.765374
988	C	0.599781	0.801003	0.672523
989	C	0.579945	0.791082	0.966406
990	N	0.545016	0.773616	0.969746
991	C	0.525372	0.763791	0.674393
992	C	0.544766	0.773489	0.715944
993	C	0.581664	0.791942	0.713597
994	H	0.595995	0.799107	0.742634
995	C	0.987893	0.745051	0.001121
996	C	0.968499	0.735348	0.95957
997	C	0.931603	0.716901	0.961917
998	C	0.913486	0.707845	0.00299
999	C	0.933323	0.717774	0.709107
1000	N	0.968251	0.735237	0.705765
1001	H	0.917271	0.709731	0.932882
1002	H	0.922	0.712117	0.740186
1003	H	0.591269	0.796744	0.935327
1004	N	0.981695	0.74194	0.916926
1005	H	0.506003	0.754091	0.91014
1006	H	0.966617	0.734398	0.890629
1007	N	0.531573	0.766889	0.758588
1008	H	0.54665	0.77443	0.784885
