data_C360H216N144O216_2018-02-15_10:32:30
#******************************************
#
# CIF file created by Zeo++
# Zeo++ is an open source package to
# analyze microporous materials
#
#*******************************************

_cell_length_a		43.5228   
_cell_length_b		43.5228   
_cell_length_c		30.0931   
_cell_angle_alpha		90   
_cell_angle_beta		90   
_cell_angle_gamma		120   

_symmetry_space_group_name_H-M		'P1'
_symmetry_Int_Tables_number		1
_symmetry_cell_setting		Monoclinic

loop_
_symmetry_equiv_pos_as_xyz
'+x,+y,+z'

loop_
_atom_site_label
_atom_site_type_symbol
_atom_site_fract_x
_atom_site_fract_y
_atom_site_fract_z
1	C	0.129053	0.32178	0.290134
2	N	0.15451	0.35657	0.957211
3	C	0.189612	0.367079	0.956812
4	N	0.198953	0.341628	0.957204
5	C	0.174365	0.306522	0.956786
6	N	0.139573	0.297191	0.957201
7	C	0.215642	0.402938	0.962039
8	C	0.184192	0.280493	0.962013
9	C	0.09319	0.311934	0.962029
10	O	0.157737	0.246172	0.963236
11	O	0.085314	0.33838	0.963286
12	O	0.249964	0.410807	0.963266
13	C	0.36631	0.175207	0.373515
14	N	0.3409	0.140397	0.039759
15	C	0.30578	0.129822	0.040148
16	N	0.296379	0.15523	0.039751
17	C	0.320926	0.190346	0.040161
18	N	0.355737	0.199752	0.03977
19	C	0.279813	0.093944	0.034908
20	C	0.311034	0.21633	0.034933
21	C	0.402182	0.185088	0.034945
22	O	0.337444	0.250669	0.033677
23	O	0.410103	0.158671	0.033732
24	O	0.245472	0.086006	0.033642
25	C	0.263486	0.228846	0.016289
26	C	0.279925	0.253522	0.314439
27	C	0.264479	0.272976	0.29745
28	C	0.23169	0.267869	0.313885
29	C	0.215242	0.243195	0.015745
30	C	0.23069	0.223728	0.03271
31	O	0.279798	0.294034	0.261237
32	H	0.298063	0.317195	0.272778
33	O	0.307199	0.25434	0.29105
34	O	0.187957	0.242355	0.039121
35	O	0.21536	0.20267	0.068919
36	H	0.167419	0.218245	0.036489
37	H	0.327741	0.278452	0.293644
38	H	0.197127	0.179499	0.057371
39	N	0.276516	0.208284	0.032783
40	H	0.259252	0.185479	0.045496
41	N	0.21869	0.28847	0.297434
42	H	0.235974	0.311274	0.284734
43	C	0.267315	0.033886	0.016273
44	C	0.242656	0.025664	0.314397
45	C	0.223197	0.490753	0.297426
46	C	0.22827	0.46306	0.313904
47	C	0.25292	0.47129	0.015795
48	C	0.272413	0.006206	0.032731
49	O	0.202137	0.485009	0.261215
50	H	0.178978	0.480119	0.272754
51	O	0.241844	0.052116	0.291004
52	O	0.253722	0.444814	0.039149
53	O	0.29345	0.011928	0.068959
54	H	0.277839	0.448393	0.036584
55	H	0.21773	0.048543	0.293581
56	H	0.316624	0.016859	0.057432
57	N	0.28787	0.067478	0.032768
58	H	0.310671	0.073022	0.0455
59	N	0.207664	0.429458	0.297459
60	H	0.184868	0.423942	0.284739
61	C	0.462259	0.232631	0.016346
62	C	0.470498	0.216176	0.314511
63	C	0.005406	0.231627	0.297527
64	C	0.033083	0.264428	0.313939
65	C	0.02484	0.280869	0.015784
66	C	0.489939	0.265426	0.03277
67	O	0.011133	0.216288	0.261325
68	H	0.016061	0.19805	0.272881
69	O	0.444058	0.188897	0.291117
70	O	0.05129	0.308148	0.039172
71	O	0.484194	0.280753	0.068971
72	H	0.047724	0.328691	0.036551
73	H	0.447623	0.168354	0.293751
74	H	0.479283	0.299003	0.057415
75	N	0.428664	0.219602	0.032827
76	H	0.423121	0.236869	0.045525
77	N	0.066681	0.277431	0.29748
78	H	0.072205	0.260151	0.284776
79	C	0.129053	0.32178	0.62347
80	N	0.15451	0.35657	0.290544
81	C	0.189612	0.367079	0.290143
82	N	0.198953	0.341628	0.290536
83	C	0.174365	0.306522	0.290118
84	N	0.139573	0.297191	0.290532
85	C	0.215642	0.402938	0.295372
86	C	0.184192	0.280493	0.295344
87	C	0.09319	0.311934	0.29536
88	O	0.157737	0.246172	0.296566
89	O	0.085314	0.33838	0.296617
90	O	0.249964	0.410807	0.296597
91	C	0.36631	0.175207	0.706848
92	N	0.3409	0.140397	0.373093
93	C	0.30578	0.129822	0.373482
94	N	0.296379	0.15523	0.373086
95	C	0.320926	0.190346	0.373495
96	N	0.355737	0.199752	0.373103
97	C	0.279813	0.093944	0.368241
98	C	0.311034	0.21633	0.368268
99	C	0.402182	0.185088	0.368278
100	O	0.337444	0.250669	0.367012
101	O	0.410103	0.158671	0.367065
102	O	0.245472	0.086006	0.366975
103	C	0.263486	0.228846	0.349622
104	C	0.279925	0.253522	0.647774
105	C	0.264479	0.272976	0.630784
106	C	0.23169	0.267869	0.647219
107	C	0.215242	0.243195	0.349077
108	C	0.23069	0.223728	0.366045
109	O	0.279798	0.294034	0.594573
110	H	0.298063	0.317195	0.60611
111	O	0.307199	0.25434	0.624383
112	O	0.187957	0.242355	0.372455
113	O	0.21536	0.20267	0.402252
114	H	0.167419	0.218245	0.369823
115	H	0.327741	0.278452	0.626979
116	H	0.197127	0.179499	0.390705
117	N	0.276516	0.208284	0.366118
118	H	0.259252	0.185479	0.378828
119	N	0.21869	0.28847	0.630767
120	H	0.235974	0.311274	0.618066
121	C	0.267315	0.033886	0.349606
122	C	0.242656	0.025664	0.647731
123	C	0.223197	0.490753	0.63076
124	C	0.22827	0.46306	0.647239
125	C	0.25292	0.47129	0.34913
126	C	0.272413	0.006206	0.366065
127	O	0.202137	0.485009	0.594549
128	H	0.178978	0.480119	0.606087
129	O	0.241844	0.052116	0.624337
130	O	0.253722	0.444814	0.372481
131	O	0.29345	0.011928	0.402292
132	H	0.277839	0.448393	0.369919
133	H	0.21773	0.048543	0.626916
134	H	0.316624	0.016859	0.390765
135	N	0.28787	0.067478	0.366101
136	H	0.310671	0.073022	0.378835
137	N	0.207664	0.429458	0.630793
138	H	0.184868	0.423942	0.618073
139	C	0.462259	0.232631	0.349679
140	C	0.470498	0.216176	0.647844
141	C	0.005406	0.231627	0.63086
142	C	0.033083	0.264428	0.647272
143	C	0.02484	0.280869	0.349117
144	C	0.489939	0.265426	0.366104
145	O	0.011133	0.216288	0.594659
146	H	0.016061	0.19805	0.606216
147	O	0.444058	0.188897	0.62445
148	O	0.05129	0.308148	0.372505
149	O	0.484194	0.280753	0.402306
150	H	0.047724	0.328691	0.369886
151	H	0.447623	0.168354	0.627085
152	H	0.479283	0.299003	0.390748
153	N	0.428664	0.219602	0.366161
154	H	0.423121	0.236869	0.378858
155	N	0.066681	0.277431	0.630813
156	H	0.072205	0.260151	0.618109
157	C	0.129053	0.32178	0.956802
158	N	0.15451	0.35657	0.623878
159	C	0.189612	0.367079	0.623476
160	N	0.198953	0.341628	0.623868
161	C	0.174365	0.306522	0.623453
162	N	0.139573	0.297191	0.623865
163	C	0.215642	0.402938	0.628707
164	C	0.184192	0.280493	0.628677
165	C	0.09319	0.311934	0.628693
166	O	0.157737	0.246172	0.6299
167	O	0.085314	0.33838	0.629949
168	O	0.249964	0.410807	0.62993
169	C	0.36631	0.175207	0.040179
170	N	0.3409	0.140397	0.706426
171	C	0.30578	0.129822	0.706818
172	N	0.296379	0.15523	0.706419
173	C	0.320926	0.190346	0.706828
174	N	0.355737	0.199752	0.706439
175	C	0.279813	0.093944	0.701577
176	C	0.311034	0.21633	0.701601
177	C	0.402182	0.185088	0.701614
178	O	0.337444	0.250669	0.700344
179	O	0.410103	0.158671	0.700401
180	O	0.245472	0.086006	0.700311
181	C	0.263486	0.228846	0.682958
182	C	0.279925	0.253522	0.981107
183	C	0.264479	0.272976	0.96412
184	C	0.23169	0.267869	0.980552
185	C	0.215242	0.243195	0.682413
186	C	0.23069	0.223728	0.699377
187	O	0.279798	0.294034	0.927905
188	H	0.298063	0.317195	0.939446
189	O	0.307199	0.25434	0.957716
190	O	0.187957	0.242355	0.705788
191	O	0.21536	0.20267	0.735588
192	H	0.167419	0.218245	0.703156
193	H	0.327741	0.278452	0.960311
194	H	0.197127	0.179499	0.724038
195	N	0.276516	0.208284	0.699451
196	H	0.259252	0.185479	0.712164
197	N	0.21869	0.28847	0.964103
198	H	0.235974	0.311274	0.951402
199	C	0.267315	0.033886	0.682942
200	C	0.242656	0.025664	0.981064
201	C	0.223197	0.490753	0.964093
202	C	0.22827	0.46306	0.980572
203	C	0.25292	0.47129	0.682463
204	C	0.272413	0.006206	0.699397
205	O	0.202137	0.485009	0.927882
206	H	0.178978	0.480119	0.939423
207	O	0.241844	0.052116	0.957673
208	O	0.253722	0.444814	0.705817
209	O	0.29345	0.011928	0.735628
210	H	0.277839	0.448393	0.703252
211	H	0.21773	0.048543	0.960248
212	H	0.316624	0.016859	0.724101
213	N	0.28787	0.067478	0.699434
214	H	0.310671	0.073022	0.712168
215	N	0.207664	0.429458	0.964126
216	H	0.184868	0.423942	0.951406
217	C	0.462259	0.232631	0.683015
218	C	0.470498	0.216176	0.98118
219	C	0.005406	0.231627	0.964196
220	C	0.033083	0.264428	0.980605
221	C	0.02484	0.280869	0.682453
222	C	0.489939	0.265426	0.699437
223	O	0.011133	0.216288	0.927992
224	H	0.016061	0.19805	0.939549
225	O	0.444058	0.188897	0.957786
226	O	0.05129	0.308148	0.705841
227	O	0.484194	0.280753	0.735638
228	H	0.047724	0.328691	0.703219
229	H	0.447623	0.168354	0.960418
230	H	0.479283	0.299003	0.724084
231	N	0.428664	0.219602	0.699494
232	H	0.423121	0.236869	0.712194
233	N	0.066681	0.277431	0.964146
234	H	0.072205	0.260151	0.951442
235	C	0.129051	0.821779	0.290134
236	N	0.15451	0.856571	0.957211
237	C	0.189613	0.86708	0.956812
238	N	0.198954	0.841629	0.957204
239	C	0.174365	0.806523	0.956786
240	N	0.139573	0.797192	0.957201
241	C	0.215644	0.902939	0.962039
242	C	0.184191	0.780491	0.962013
243	C	0.09319	0.811933	0.962029
244	O	0.157736	0.746171	0.963236
245	O	0.085312	0.838379	0.963286
246	O	0.249964	0.910808	0.963266
247	C	0.366309	0.675206	0.373515
248	N	0.3409	0.640397	0.039759
249	C	0.305779	0.629822	0.040148
250	N	0.296379	0.655231	0.039751
251	C	0.320926	0.690347	0.040161
252	N	0.355736	0.699752	0.03977
253	C	0.279814	0.593945	0.034908
254	C	0.311033	0.716329	0.034933
255	C	0.402181	0.685089	0.034945
256	O	0.337443	0.750668	0.033677
257	O	0.410102	0.658672	0.033732
258	O	0.245472	0.586006	0.033642
259	C	0.263486	0.728846	0.016289
260	C	0.279925	0.753523	0.314439
261	C	0.264478	0.772975	0.29745
262	C	0.23169	0.76787	0.313885
263	C	0.215241	0.743194	0.015745
264	C	0.23069	0.723728	0.03271
265	O	0.279799	0.794035	0.261237
266	H	0.298062	0.817194	0.272778
267	O	0.307198	0.75434	0.29105
268	O	0.187957	0.742356	0.039121
269	O	0.21536	0.702671	0.068919
270	H	0.167419	0.718244	0.036489
271	H	0.32774	0.778451	0.293644
272	H	0.197126	0.679499	0.057371
273	N	0.276516	0.708285	0.032783
274	H	0.259252	0.685479	0.045496
275	N	0.218691	0.788472	0.297434
276	H	0.235974	0.811275	0.284734
277	C	0.267315	0.533887	0.016273
278	C	0.242656	0.525665	0.314397
279	C	0.223196	0.990751	0.297426
280	C	0.22827	0.963061	0.313904
281	C	0.252921	0.971291	0.015795
282	C	0.272412	0.506207	0.032731
283	O	0.202136	0.985007	0.261215
284	H	0.17898	0.98012	0.272754
285	O	0.241843	0.552116	0.291004
286	O	0.253721	0.944813	0.039149
287	O	0.29345	0.51193	0.068959
288	H	0.277838	0.948392	0.036584
289	H	0.217729	0.548542	0.29358
290	H	0.316624	0.516859	0.057432
291	N	0.287869	0.567477	0.032768
292	H	0.31067	0.573022	0.0455
293	N	0.207665	0.92946	0.297459
294	H	0.184869	0.923944	0.284739
295	C	0.46226	0.732632	0.016346
296	C	0.470497	0.716175	0.314511
297	C	0.005407	0.731627	0.297527
298	C	0.033083	0.764429	0.313939
299	C	0.024841	0.780871	0.015784
300	C	0.489937	0.765424	0.03277
301	O	0.011133	0.716289	0.261325
302	H	0.016061	0.698049	0.272881
303	O	0.444057	0.688896	0.291117
304	O	0.05129	0.80815	0.039172
305	O	0.484194	0.780754	0.068971
306	H	0.047723	0.82869	0.036551
307	H	0.447623	0.668353	0.293751
308	H	0.479284	0.799004	0.057415
309	N	0.428664	0.719603	0.032826
310	H	0.423121	0.736869	0.045525
311	N	0.066681	0.77743	0.29748
312	H	0.072204	0.76015	0.284776
313	C	0.129051	0.821779	0.62347
314	N	0.15451	0.856571	0.290544
315	C	0.189613	0.86708	0.290143
316	N	0.198954	0.841629	0.290536
317	C	0.174365	0.806523	0.290118
318	N	0.139573	0.797192	0.290532
319	C	0.215644	0.902939	0.295372
320	C	0.184191	0.780491	0.295344
321	C	0.09319	0.811933	0.29536
322	O	0.157736	0.746171	0.296566
323	O	0.085312	0.838379	0.296617
324	O	0.249964	0.910808	0.296597
325	C	0.366309	0.675206	0.706848
326	N	0.3409	0.640397	0.373093
327	C	0.305779	0.629822	0.373482
328	N	0.296379	0.655231	0.373083
329	C	0.320926	0.690347	0.373495
330	N	0.355736	0.699752	0.373103
331	C	0.279814	0.593945	0.368241
332	C	0.311033	0.716329	0.368268
333	C	0.402181	0.685089	0.368278
334	O	0.337443	0.750668	0.367012
335	O	0.410102	0.658672	0.367065
336	O	0.245472	0.586006	0.366975
337	C	0.263486	0.728846	0.349622
338	C	0.279925	0.753523	0.647774
339	C	0.264478	0.772975	0.630784
340	C	0.23169	0.76787	0.647219
341	C	0.215241	0.743194	0.349077
342	C	0.23069	0.723728	0.366045
343	O	0.279799	0.794035	0.594573
344	H	0.298062	0.817194	0.60611
345	O	0.307198	0.75434	0.624383
346	O	0.187957	0.742356	0.372455
347	O	0.21536	0.702671	0.402252
348	H	0.167419	0.718244	0.369823
349	H	0.32774	0.778451	0.626979
350	H	0.197126	0.679499	0.390705
351	N	0.276516	0.708285	0.366118
352	H	0.259252	0.685479	0.378828
353	N	0.218691	0.788472	0.630767
354	H	0.235974	0.811275	0.618066
355	C	0.267315	0.533887	0.349606
356	C	0.242656	0.525665	0.647731
357	C	0.223196	0.990751	0.63076
358	C	0.22827	0.963061	0.647239
359	C	0.252921	0.971291	0.34913
360	C	0.272412	0.506207	0.366065
361	O	0.202136	0.985007	0.594549
362	H	0.17898	0.98012	0.606087
363	O	0.241843	0.552116	0.624337
364	O	0.253721	0.944813	0.372481
365	O	0.29345	0.51193	0.402292
366	H	0.277838	0.948392	0.369919
367	H	0.217729	0.548542	0.626916
368	H	0.316624	0.516859	0.390765
369	N	0.287869	0.567477	0.366101
370	H	0.31067	0.573022	0.378835
371	N	0.207665	0.92946	0.630793
372	H	0.184869	0.923944	0.618073
373	C	0.46226	0.732632	0.349679
374	C	0.470497	0.716175	0.647844
375	C	0.005407	0.731627	0.63086
376	C	0.033083	0.764429	0.647272
377	C	0.024841	0.780871	0.349117
378	C	0.489937	0.765424	0.366104
379	O	0.011133	0.716289	0.594659
380	H	0.016061	0.698049	0.606216
381	O	0.444057	0.688896	0.62445
382	O	0.05129	0.80815	0.372505
383	O	0.484194	0.780754	0.402306
384	H	0.047723	0.82869	0.369886
385	H	0.447623	0.668353	0.627085
386	H	0.479284	0.799004	0.390748
387	N	0.428664	0.719603	0.366161
388	H	0.423121	0.736869	0.378858
389	N	0.066681	0.77743	0.630813
390	H	0.072204	0.76015	0.618109
391	C	0.129051	0.821779	0.956802
392	N	0.15451	0.856571	0.623878
393	C	0.189613	0.86708	0.623476
394	N	0.198954	0.841629	0.623868
395	C	0.174365	0.806523	0.623453
396	N	0.139573	0.797192	0.623865
397	C	0.215644	0.902939	0.628707
398	C	0.184191	0.780491	0.628677
399	C	0.09319	0.811933	0.628693
400	O	0.157736	0.746171	0.6299
401	O	0.085312	0.838379	0.629953
402	O	0.249964	0.910808	0.62993
403	C	0.366309	0.675206	0.040179
404	N	0.3409	0.640397	0.706426
405	C	0.305779	0.629822	0.706818
406	N	0.296379	0.655231	0.706419
407	C	0.320926	0.690347	0.706828
408	N	0.355736	0.699752	0.706439
409	C	0.279814	0.593945	0.701577
410	C	0.311033	0.716329	0.701601
411	C	0.402181	0.685089	0.701614
412	O	0.337443	0.750668	0.700344
413	O	0.410102	0.658672	0.700401
414	O	0.245472	0.586006	0.700311
415	C	0.263486	0.728846	0.682958
416	C	0.279925	0.753523	0.981107
417	C	0.264478	0.772975	0.96412
418	C	0.23169	0.76787	0.980552
419	C	0.215241	0.743194	0.682413
420	C	0.23069	0.723728	0.699377
421	O	0.279799	0.794035	0.927905
422	H	0.298062	0.817194	0.939446
423	O	0.307198	0.75434	0.957716
424	O	0.187957	0.742356	0.705788
425	O	0.21536	0.702671	0.735588
426	H	0.167419	0.718244	0.703156
427	H	0.32774	0.778451	0.960311
428	H	0.197126	0.679499	0.724038
429	N	0.276516	0.708285	0.699451
430	H	0.259252	0.685479	0.712164
431	N	0.218691	0.788472	0.964103
432	H	0.235974	0.811275	0.951402
433	C	0.267315	0.533887	0.682942
434	C	0.242656	0.525665	0.981064
435	C	0.223196	0.990751	0.964093
436	C	0.22827	0.963061	0.980572
437	C	0.252921	0.971291	0.682463
438	C	0.272412	0.506207	0.699397
439	O	0.202136	0.985007	0.927882
440	H	0.17898	0.98012	0.939423
441	O	0.241843	0.552116	0.957673
442	O	0.253721	0.944813	0.705817
443	O	0.29345	0.51193	0.735628
444	H	0.277838	0.948392	0.703252
445	H	0.217729	0.548542	0.960248
446	H	0.316624	0.516859	0.724101
447	N	0.287869	0.567477	0.699434
448	H	0.31067	0.573022	0.712168
449	N	0.207665	0.92946	0.964126
450	H	0.184869	0.923944	0.951406
451	C	0.46226	0.732632	0.683015
452	C	0.470497	0.716175	0.98118
453	C	0.005407	0.731627	0.964196
454	C	0.033083	0.764429	0.980605
455	C	0.024841	0.780871	0.682453
456	C	0.489937	0.765424	0.699437
457	O	0.011133	0.716289	0.927992
458	H	0.016061	0.698049	0.939549
459	O	0.444057	0.688896	0.957786
460	O	0.05129	0.80815	0.705841
461	O	0.484194	0.780754	0.735638
462	H	0.047723	0.82869	0.703219
463	H	0.447623	0.668353	0.960418
464	H	0.479284	0.799004	0.724084
465	N	0.428664	0.719603	0.699494
466	H	0.423121	0.736869	0.712194
467	N	0.066681	0.77743	0.964146
468	H	0.072204	0.76015	0.951442
469	C	0.629054	0.32178	0.290134
470	N	0.654511	0.35657	0.957211
471	C	0.689612	0.367079	0.956812
472	N	0.698953	0.341628	0.957204
473	C	0.674365	0.306522	0.956786
474	N	0.639573	0.297191	0.957201
475	C	0.715643	0.402938	0.962039
476	C	0.684193	0.280493	0.962013
477	C	0.593191	0.311934	0.962029
478	O	0.657737	0.246172	0.963236
479	O	0.585315	0.33838	0.963286
480	O	0.749964	0.410807	0.963266
481	C	0.86631	0.175207	0.373515
482	N	0.8409	0.140397	0.039759
483	C	0.80578	0.129822	0.040148
484	N	0.796381	0.15523	0.039751
485	C	0.820926	0.190346	0.040161
486	N	0.855737	0.199752	0.03977
487	C	0.779813	0.093944	0.034908
488	C	0.811036	0.21633	0.034933
489	C	0.902182	0.185088	0.034945
490	O	0.837444	0.250669	0.033677
491	O	0.910103	0.158671	0.033732
492	O	0.745471	0.086006	0.033642
493	C	0.763487	0.228846	0.016289
494	C	0.779927	0.253522	0.314439
495	C	0.764479	0.272976	0.29745
496	C	0.73169	0.267869	0.313885
497	C	0.715243	0.243195	0.015745
498	C	0.730692	0.223728	0.03271
499	O	0.779798	0.294034	0.261237
500	H	0.798063	0.317195	0.272778
501	O	0.8072	0.25434	0.29105
502	O	0.687959	0.242355	0.039121
503	O	0.71536	0.20267	0.068919
504	H	0.667421	0.218245	0.036489
505	H	0.827741	0.278452	0.293644
506	H	0.697128	0.179499	0.057371
507	N	0.776516	0.208284	0.032783
508	H	0.759252	0.185479	0.045496
509	N	0.71869	0.28847	0.297434
510	H	0.735974	0.311274	0.284734
511	C	0.767315	0.033886	0.016273
512	C	0.742656	0.025664	0.314397
513	C	0.723197	0.490753	0.297426
514	C	0.728272	0.46306	0.313904
515	C	0.752921	0.47129	0.015795
516	C	0.772413	0.006206	0.032731
517	O	0.702137	0.485009	0.261215
518	H	0.678979	0.480119	0.272754
519	O	0.741844	0.052116	0.291004
520	O	0.753722	0.444814	0.039149
521	O	0.79345	0.011928	0.068959
522	H	0.77784	0.448393	0.036584
523	H	0.717729	0.048543	0.293581
524	H	0.816624	0.016859	0.057432
525	N	0.78787	0.067478	0.032768
526	H	0.810671	0.073022	0.0455
527	N	0.707664	0.429458	0.297459
528	H	0.684868	0.423942	0.284739
529	C	0.962261	0.232631	0.016346
530	C	0.970498	0.216176	0.314511
531	C	0.505407	0.231627	0.297527
532	C	0.533085	0.264428	0.313939
533	C	0.52484	0.280869	0.015784
534	C	0.989939	0.265426	0.03277
535	O	0.511133	0.216288	0.261325
536	H	0.516062	0.19805	0.272881
537	O	0.944058	0.188897	0.291117
538	O	0.551291	0.308148	0.039172
539	O	0.984194	0.280753	0.068971
540	H	0.547724	0.328691	0.036551
541	H	0.947623	0.168354	0.293751
542	H	0.979285	0.299003	0.057415
543	N	0.928664	0.219602	0.032827
544	H	0.923121	0.236869	0.045525
545	N	0.566682	0.277431	0.29748
546	H	0.572205	0.260151	0.284776
547	C	0.629054	0.32178	0.62347
548	N	0.654511	0.35657	0.290544
549	C	0.689612	0.367079	0.290143
550	N	0.698953	0.341628	0.290536
551	C	0.674365	0.306522	0.290118
552	N	0.639573	0.297191	0.290532
553	C	0.715643	0.402938	0.295372
554	C	0.684193	0.280493	0.295344
555	C	0.593191	0.311934	0.29536
556	O	0.657737	0.246172	0.296566
557	O	0.585315	0.33838	0.296617
558	O	0.749964	0.410807	0.296597
559	C	0.86631	0.175207	0.706848
560	N	0.8409	0.140397	0.373093
561	C	0.80578	0.129822	0.373482
562	N	0.796381	0.15523	0.373086
563	C	0.820926	0.190346	0.373495
564	N	0.855737	0.199752	0.373103
565	C	0.779813	0.093944	0.368241
566	C	0.811036	0.21633	0.368268
567	C	0.902182	0.185088	0.368278
568	O	0.837444	0.250669	0.367012
569	O	0.910103	0.158671	0.367065
570	O	0.745471	0.086006	0.366975
571	C	0.763487	0.228846	0.349622
572	C	0.779927	0.253522	0.647774
573	C	0.764479	0.272976	0.630784
574	C	0.73169	0.267869	0.647219
575	C	0.715243	0.243195	0.349077
576	C	0.730692	0.223728	0.366045
577	O	0.779798	0.294034	0.594573
578	H	0.798063	0.317195	0.60611
579	O	0.8072	0.25434	0.624383
580	O	0.687959	0.242355	0.372455
581	O	0.71536	0.20267	0.402252
582	H	0.667421	0.218245	0.369823
583	H	0.827741	0.278452	0.626979
584	H	0.697128	0.179499	0.390705
585	N	0.776516	0.208284	0.366118
586	H	0.759252	0.185479	0.378828
587	N	0.71869	0.28847	0.630767
588	H	0.735974	0.311274	0.618066
589	C	0.767315	0.033886	0.349606
590	C	0.742656	0.025664	0.647731
591	C	0.723197	0.490753	0.63076
592	C	0.728272	0.46306	0.647239
593	C	0.752921	0.47129	0.34913
594	C	0.772413	0.006206	0.366065
595	O	0.702137	0.485009	0.594549
596	H	0.678979	0.480119	0.606087
597	O	0.741844	0.052116	0.624337
598	O	0.753722	0.444814	0.372481
599	O	0.79345	0.011928	0.402292
600	H	0.77784	0.448393	0.369919
601	H	0.717729	0.048543	0.626916
602	H	0.816624	0.016859	0.390765
603	N	0.78787	0.067478	0.366101
604	H	0.810671	0.073022	0.378835
605	N	0.707664	0.429458	0.630793
606	H	0.684868	0.423942	0.618073
607	C	0.962261	0.232631	0.349679
608	C	0.970498	0.216176	0.647844
609	C	0.505407	0.231627	0.63086
610	C	0.533085	0.264428	0.647272
611	C	0.52484	0.280869	0.349117
612	C	0.989939	0.265426	0.366104
613	O	0.511133	0.216288	0.594659
614	H	0.516062	0.19805	0.606216
615	O	0.944058	0.188897	0.62445
616	O	0.551291	0.308148	0.372505
617	O	0.984194	0.280753	0.402306
618	H	0.547724	0.328691	0.369886
619	H	0.947623	0.168354	0.627085
620	H	0.979285	0.299003	0.390748
621	N	0.928664	0.219602	0.366161
622	H	0.923121	0.236869	0.378858
623	N	0.566682	0.277431	0.630813
624	H	0.572205	0.260151	0.618109
625	C	0.629054	0.32178	0.956802
626	N	0.654511	0.35657	0.623878
627	C	0.689612	0.367079	0.623476
628	N	0.698953	0.341628	0.623868
629	C	0.674365	0.306522	0.623453
630	N	0.639573	0.297191	0.623865
631	C	0.715643	0.402938	0.628707
632	C	0.684193	0.280493	0.628677
633	C	0.593191	0.311934	0.628693
634	O	0.657737	0.246172	0.6299
635	O	0.585315	0.33838	0.629949
636	O	0.749964	0.410807	0.62993
637	C	0.86631	0.175207	0.040179
638	N	0.8409	0.140397	0.706426
639	C	0.80578	0.129822	0.706818
640	N	0.796381	0.15523	0.706419
641	C	0.820926	0.190346	0.706828
642	N	0.855737	0.199752	0.706439
643	C	0.779813	0.093944	0.701577
644	C	0.811036	0.21633	0.701601
645	C	0.902182	0.185088	0.701614
646	O	0.837444	0.250669	0.700344
647	O	0.910103	0.158671	0.700401
648	O	0.745471	0.086006	0.700311
649	C	0.763487	0.228846	0.682958
650	C	0.779927	0.253522	0.981107
651	C	0.764479	0.272976	0.96412
652	C	0.73169	0.267869	0.980552
653	C	0.715243	0.243195	0.682413
654	C	0.730692	0.223728	0.699377
655	O	0.779798	0.294034	0.927905
656	H	0.798063	0.317195	0.939446
657	O	0.8072	0.25434	0.957716
658	O	0.687959	0.242355	0.705788
659	O	0.71536	0.20267	0.735588
660	H	0.667421	0.218245	0.703156
661	H	0.827741	0.278452	0.960311
662	H	0.697128	0.179499	0.724038
663	N	0.776516	0.208284	0.699451
664	H	0.759252	0.185479	0.712164
665	N	0.71869	0.28847	0.964103
666	H	0.735974	0.311274	0.951402
667	C	0.767315	0.033886	0.682942
668	C	0.742656	0.025664	0.981064
669	C	0.723197	0.490753	0.964093
670	C	0.728272	0.46306	0.980572
671	C	0.752921	0.47129	0.682463
672	C	0.772413	0.006206	0.699397
673	O	0.702137	0.485009	0.927882
674	H	0.678979	0.480119	0.939423
675	O	0.741844	0.052116	0.957673
676	O	0.753722	0.444814	0.705817
677	O	0.79345	0.011928	0.735628
678	H	0.77784	0.448393	0.703252
679	H	0.717729	0.048543	0.960248
680	H	0.816624	0.016859	0.724101
681	N	0.78787	0.067478	0.699434
682	H	0.810671	0.073022	0.712168
683	N	0.707664	0.429458	0.964126
684	H	0.684868	0.423942	0.951406
685	C	0.962261	0.232631	0.683015
686	C	0.970498	0.216176	0.98118
687	C	0.505407	0.231627	0.964196
688	C	0.533085	0.264428	0.980605
689	C	0.52484	0.280869	0.682453
690	C	0.989939	0.265426	0.699437
691	O	0.511133	0.216288	0.927992
692	H	0.516062	0.19805	0.939549
693	O	0.944058	0.188897	0.957786
694	O	0.551291	0.308148	0.705841
695	O	0.984194	0.280753	0.735638
696	H	0.547724	0.328691	0.703219
697	H	0.947623	0.168354	0.960418
698	H	0.979285	0.299003	0.724084
699	N	0.928664	0.219602	0.699494
700	H	0.923121	0.236869	0.712194
701	N	0.566682	0.277431	0.964146
702	H	0.572205	0.260151	0.951442
703	C	0.629052	0.821779	0.290134
704	N	0.65451	0.856571	0.957211
705	C	0.689613	0.86708	0.956812
706	N	0.698954	0.841629	0.957204
707	C	0.674366	0.806523	0.956786
708	N	0.639573	0.797192	0.957201
709	C	0.715644	0.902939	0.962039
710	C	0.684193	0.780491	0.962013
711	C	0.59319	0.811933	0.962029
712	O	0.657736	0.746171	0.963236
713	O	0.585313	0.838379	0.963286
714	O	0.749965	0.910808	0.963266
715	C	0.86631	0.675206	0.373515
716	N	0.840901	0.640397	0.039759
717	C	0.80578	0.629822	0.040148
718	N	0.796379	0.655231	0.039751
719	C	0.820927	0.690347	0.040161
720	N	0.855737	0.699752	0.03977
721	C	0.779813	0.593945	0.034908
722	C	0.811033	0.716329	0.034933
723	C	0.902182	0.685089	0.034945
724	O	0.837443	0.750668	0.033677
725	O	0.910103	0.658672	0.033732
726	O	0.745472	0.586006	0.033642
727	C	0.763487	0.728846	0.016289
728	C	0.779927	0.753523	0.314439
729	C	0.764478	0.772975	0.29745
730	C	0.731691	0.76787	0.313885
731	C	0.715242	0.743194	0.015745
732	C	0.730692	0.723728	0.03271
733	O	0.779799	0.794035	0.261237
734	H	0.798062	0.817194	0.272778
735	O	0.8072	0.75434	0.29105
736	O	0.687959	0.742356	0.039121
737	O	0.715361	0.702671	0.068919
738	H	0.667418	0.718244	0.036489
739	H	0.82774	0.778451	0.293644
740	H	0.697128	0.679499	0.057371
741	N	0.776516	0.708285	0.032783
742	H	0.759252	0.685479	0.045496
743	N	0.718691	0.788472	0.297434
744	H	0.735975	0.811275	0.284734
745	C	0.767315	0.533887	0.016273
746	C	0.742657	0.525665	0.314397
747	C	0.723196	0.990751	0.297426
748	C	0.72827	0.963061	0.313904
749	C	0.752921	0.971291	0.015795
750	C	0.772413	0.506207	0.032731
751	O	0.702137	0.985007	0.261215
752	H	0.678979	0.98012	0.272754
753	O	0.741844	0.552116	0.291004
754	O	0.753721	0.944813	0.039149
755	O	0.793451	0.51193	0.068959
756	H	0.777839	0.948392	0.036584
757	H	0.717728	0.548542	0.29358
758	H	0.816624	0.516859	0.057432
759	N	0.78787	0.567477	0.032768
760	H	0.810671	0.573022	0.0455
761	N	0.707665	0.92946	0.297459
762	H	0.684869	0.923944	0.284739
763	C	0.962261	0.732632	0.016346
764	C	0.970498	0.716175	0.314511
765	C	0.505406	0.731627	0.297527
766	C	0.533084	0.764429	0.313939
767	C	0.524841	0.780871	0.015784
768	C	0.989939	0.765424	0.03277
769	O	0.511134	0.716289	0.261325
770	H	0.516061	0.698049	0.272881
771	O	0.944058	0.688896	0.291117
772	O	0.551291	0.80815	0.039172
773	O	0.984194	0.780754	0.068971
774	H	0.547723	0.82869	0.036551
775	H	0.947623	0.668353	0.293751
776	H	0.979283	0.799004	0.057415
777	N	0.928664	0.719603	0.032826
778	H	0.923121	0.736869	0.045525
779	N	0.566681	0.77743	0.29748
780	H	0.572204	0.76015	0.284776
781	C	0.629052	0.821779	0.62347
782	N	0.65451	0.856571	0.290544
783	C	0.689613	0.86708	0.290143
784	N	0.698954	0.841629	0.290536
785	C	0.674366	0.806523	0.290118
786	N	0.639573	0.797192	0.290532
787	C	0.715644	0.902939	0.295372
788	C	0.684193	0.780491	0.295344
789	C	0.59319	0.811933	0.29536
790	O	0.657736	0.746171	0.296566
791	O	0.585313	0.838379	0.296617
792	O	0.749965	0.910808	0.296597
793	C	0.86631	0.675206	0.706848
794	N	0.840901	0.640397	0.373093
795	C	0.80578	0.629822	0.373482
796	N	0.796379	0.655231	0.373083
797	C	0.820927	0.690347	0.373495
798	N	0.855737	0.699752	0.373103
799	C	0.779813	0.593945	0.368241
800	C	0.811033	0.716329	0.368268
801	C	0.902182	0.685089	0.368278
802	O	0.837443	0.750668	0.367012
803	O	0.910103	0.658672	0.367065
804	O	0.745472	0.586006	0.366975
805	C	0.763487	0.728846	0.349622
806	C	0.779927	0.753523	0.647774
807	C	0.764478	0.772975	0.630784
808	C	0.731691	0.76787	0.647219
809	C	0.715242	0.743194	0.349077
810	C	0.730692	0.723728	0.366045
811	O	0.779799	0.794035	0.594573
812	H	0.798062	0.817194	0.60611
813	O	0.8072	0.75434	0.624383
814	O	0.687959	0.742356	0.372455
815	O	0.715361	0.702671	0.402252
816	H	0.667418	0.718244	0.369823
817	H	0.82774	0.778451	0.626979
818	H	0.697128	0.679499	0.390705
819	N	0.776516	0.708285	0.366118
820	H	0.759252	0.685479	0.378828
821	N	0.718691	0.788472	0.630767
822	H	0.735975	0.811275	0.618066
823	C	0.767315	0.533887	0.349606
824	C	0.742657	0.525665	0.647731
825	C	0.723196	0.990751	0.63076
826	C	0.72827	0.963061	0.647239
827	C	0.752921	0.971291	0.34913
828	C	0.772413	0.506207	0.366065
829	O	0.702137	0.985007	0.594549
830	H	0.678979	0.98012	0.606087
831	O	0.741844	0.552116	0.624337
832	O	0.753721	0.944813	0.372481
833	O	0.793451	0.51193	0.402292
834	H	0.777839	0.948392	0.369919
835	H	0.717728	0.548542	0.626916
836	H	0.816624	0.516859	0.390765
837	N	0.78787	0.567477	0.366101
838	H	0.810671	0.573022	0.378835
839	N	0.707665	0.92946	0.630793
840	H	0.684869	0.923944	0.618073
841	C	0.962261	0.732632	0.349679
842	C	0.970498	0.716175	0.647844
843	C	0.505406	0.731627	0.63086
844	C	0.533084	0.764429	0.647272
845	C	0.524841	0.780871	0.349117
846	C	0.989939	0.765424	0.366104
847	O	0.511134	0.716289	0.594659
848	H	0.516061	0.698049	0.606216
849	O	0.944058	0.688896	0.62445
850	O	0.551291	0.80815	0.372505
851	O	0.984194	0.780754	0.402306
852	H	0.547723	0.82869	0.369886
853	H	0.947623	0.668353	0.627085
854	H	0.979283	0.799004	0.390748
855	N	0.928664	0.719603	0.366161
856	H	0.923121	0.736869	0.378858
857	N	0.566681	0.77743	0.630813
858	H	0.572204	0.76015	0.618109
859	C	0.629052	0.821779	0.956802
860	N	0.65451	0.856571	0.623878
861	C	0.689613	0.86708	0.623476
862	N	0.698954	0.841629	0.623868
863	C	0.674366	0.806523	0.623453
864	N	0.639573	0.797192	0.623865
865	C	0.715644	0.902939	0.628707
866	C	0.684193	0.780491	0.628677
867	C	0.59319	0.811933	0.628693
868	O	0.657736	0.746171	0.6299
869	O	0.585313	0.838379	0.629953
870	O	0.749965	0.910808	0.62993
871	C	0.86631	0.675206	0.040179
872	N	0.840901	0.640397	0.706426
873	C	0.80578	0.629822	0.706818
874	N	0.796379	0.655231	0.706419
875	C	0.820927	0.690347	0.706828
876	N	0.855737	0.699752	0.706439
877	C	0.779813	0.593945	0.701577
878	C	0.811033	0.716329	0.701601
879	C	0.902182	0.685089	0.701614
880	O	0.837443	0.750668	0.700344
881	O	0.910103	0.658672	0.700401
882	O	0.745472	0.586006	0.700311
883	C	0.763487	0.728846	0.682958
884	C	0.779927	0.753523	0.981107
885	C	0.764478	0.772975	0.96412
886	C	0.731691	0.76787	0.980552
887	C	0.715242	0.743194	0.682413
888	C	0.730692	0.723728	0.699377
889	O	0.779799	0.794035	0.927905
890	H	0.798062	0.817194	0.939446
891	O	0.8072	0.75434	0.957716
892	O	0.687959	0.742356	0.705788
893	O	0.715361	0.702671	0.735588
894	H	0.667418	0.718244	0.703156
895	H	0.82774	0.778451	0.960311
896	H	0.697128	0.679499	0.724038
897	N	0.776516	0.708285	0.699451
898	H	0.759252	0.685479	0.712164
899	N	0.718691	0.788472	0.964103
900	H	0.735975	0.811275	0.951402
901	C	0.767315	0.533887	0.682942
902	C	0.742657	0.525665	0.981064
903	C	0.723196	0.990751	0.964093
904	C	0.72827	0.963061	0.980572
905	C	0.752921	0.971291	0.682463
906	C	0.772413	0.506207	0.699397
907	O	0.702137	0.985007	0.927882
908	H	0.678979	0.98012	0.939423
909	O	0.741844	0.552116	0.957673
910	O	0.753721	0.944813	0.705817
911	O	0.793451	0.51193	0.735628
912	H	0.777839	0.948392	0.703252
913	H	0.717728	0.548542	0.960248
914	H	0.816624	0.516859	0.724101
915	N	0.78787	0.567477	0.699434
916	H	0.810671	0.573022	0.712168
917	N	0.707665	0.92946	0.964126
918	H	0.684869	0.923944	0.951406
919	C	0.962261	0.732632	0.683015
920	C	0.970498	0.716175	0.98118
921	C	0.505406	0.731627	0.964196
922	C	0.533084	0.764429	0.980605
923	C	0.524841	0.780871	0.682453
924	C	0.989939	0.765424	0.699437
925	O	0.511134	0.716289	0.927992
926	H	0.516061	0.698049	0.939549
927	O	0.944058	0.688896	0.957786
928	O	0.551291	0.80815	0.705841
929	O	0.984194	0.780754	0.735638
930	H	0.547723	0.82869	0.703219
931	H	0.947623	0.668353	0.960418
932	H	0.979283	0.799004	0.724084
933	N	0.928664	0.719603	0.699494
934	H	0.923121	0.736869	0.712194
935	N	0.566681	0.77743	0.964146
936	H	0.572204	0.76015	0.951442
