data_C720H576N144_2018-02-15_10:39:57
#******************************************
#
# CIF file created by Zeo++
# Zeo++ is an open source package to
# analyze microporous materials
#
#*******************************************

_cell_length_a		45.138   
_cell_length_b		45.1589   
_cell_length_c		29.5982   
_cell_angle_alpha		90   
_cell_angle_beta		90   
_cell_angle_gamma		119.989   

_symmetry_space_group_name_H-M		'P1'
_symmetry_Int_Tables_number		1
_symmetry_cell_setting		Monoclinic

loop_
_symmetry_equiv_pos_as_xyz
'+x,+y,+z'

loop_
_atom_site_label
_atom_site_type_symbol
_atom_site_fract_x
_atom_site_fract_y
_atom_site_fract_z
1	C	0.044	0.023583	0.007767
2	C	0.025537	0.04134	0.007812
3	C	0.02553	0.487377	0.007814
4	H	0.038629	0.474276	0.007303
5	H	0.03864	0.06753	0.007329
6	N	0.098018	0.050489	0.04618
7	C	0.044	0.523582	0.007767
8	C	0.025537	0.541341	0.007812
9	C	0.025529	0.987376	0.007814
10	H	0.038629	0.974275	0.007303
11	H	0.038639	0.567529	0.007329
12	N	0.098018	0.550489	0.04618
13	C	0.188758	0.09617	0.007663
14	C	0.207281	0.078372	0.008031
15	H	0.194432	0.052222	0.0094
16	C	0.147215	0.075058	0.096029
17	C	0.132807	0.067925	0.049823
18	H	0.138325	0.090188	0.114188
19	H	0.175105	0.089093	0.09629
20	H	0.138511	0.050988	0.11396
21	C	0.152354	0.077895	0.009387
22	C	0.188757	0.596169	0.007663
23	C	0.20728	0.578372	0.008031
24	H	0.194432	0.552222	0.0094
25	C	0.147215	0.575058	0.096029
26	C	0.132807	0.567925	0.049823
27	H	0.138325	0.590189	0.114188
28	H	0.175104	0.589092	0.09629
29	H	0.13851	0.550987	0.11396
30	C	0.152354	0.577894	0.009387
31	C	0.264032	0.080719	0.007473
32	C	0.280769	0.07973	0.047585
33	C	0.269468	0.082893	0.093369
34	H	0.270162	0.107292	0.096873
35	H	0.285926	0.081553	0.119367
36	H	0.243389	0.062137	0.099115
37	N	0.311234	0.080591	0.043396
38	C	0.308652	0.232326	0.047509
39	H	0.305322	0.227071	0.119275
40	N	0.279088	0.201853	0.043238
41	C	0.264032	0.580719	0.007473
42	C	0.280769	0.57973	0.047585
43	C	0.269468	0.582892	0.093369
44	H	0.270162	0.607293	0.096873
45	H	0.285925	0.581552	0.119367
46	H	0.243389	0.562137	0.099115
47	N	0.311234	0.580591	0.043396
48	C	0.308652	0.732326	0.047509
49	H	0.305322	0.727072	0.119275
50	N	0.279087	0.701852	0.043238
51	C	0.08044	0.041799	0.339848
52	C	0.099975	0.051748	0.299463
53	C	0.084382	0.04404	0.25396
54	H	0.068581	0.016433	0.249564
55	H	0.103912	0.05391	0.227587
56	H	0.068456	0.055742	0.249799
57	C	0.044	0.023583	0.341101
58	C	0.025537	0.04134	0.341145
59	C	0.02553	0.487377	0.341149
60	H	0.038629	0.474276	0.340639
61	H	0.03864	0.06753	0.340662
62	N	0.098018	0.050489	0.379512
63	C	0.08044	0.041799	0.673182
64	C	0.099975	0.051748	0.632798
65	C	0.084382	0.04404	0.587295
66	H	0.068581	0.016433	0.5829
67	H	0.103912	0.05391	0.560922
68	H	0.068456	0.055742	0.583133
69	C	0.044	0.023583	0.674435
70	C	0.025537	0.04134	0.674479
71	C	0.02553	0.487377	0.674483
72	H	0.038629	0.474276	0.673969
73	H	0.03864	0.06753	0.673996
74	N	0.098018	0.050489	0.712846
75	C	0.08044	0.041799	0.006516
76	C	0.099975	0.051748	0.966132
77	C	0.084382	0.04404	0.920626
78	H	0.068581	0.016433	0.91623
79	H	0.103912	0.05391	0.894256
80	H	0.068456	0.055742	0.916467
81	C	0.080439	0.541798	0.339848
82	C	0.099975	0.551749	0.299463
83	C	0.084382	0.544041	0.25396
84	H	0.06858	0.516434	0.249564
85	H	0.103912	0.55391	0.227587
86	H	0.068456	0.555743	0.249799
87	C	0.044	0.523582	0.341101
88	C	0.025537	0.541341	0.341145
89	C	0.025529	0.987376	0.341149
90	H	0.038629	0.974275	0.340639
91	H	0.038639	0.567529	0.340662
92	N	0.098018	0.550489	0.379512
93	C	0.080439	0.541798	0.673182
94	C	0.099975	0.551749	0.632798
95	C	0.084382	0.544041	0.587295
96	H	0.06858	0.516434	0.5829
97	H	0.103912	0.55391	0.560922
98	H	0.068456	0.555743	0.583133
99	C	0.044	0.523582	0.674435
100	C	0.025537	0.541341	0.674479
101	C	0.025529	0.987376	0.674483
102	H	0.038629	0.974275	0.673969
103	H	0.038639	0.567529	0.673996
104	N	0.098018	0.550489	0.712846
105	C	0.080439	0.541798	0.006516
106	C	0.099975	0.551749	0.966132
107	C	0.084382	0.544041	0.920626
108	H	0.06858	0.516434	0.91623
109	H	0.103912	0.55391	0.894256
110	H	0.068456	0.555743	0.916467
111	C	0.207055	0.132463	0.006222
112	H	0.194036	0.145625	0.006168
113	N	0.134766	0.069209	0.303047
114	C	0.207055	0.132463	0.339554
115	C	0.188758	0.09617	0.340997
116	C	0.207281	0.078372	0.341365
117	H	0.194036	0.145625	0.339503
118	H	0.194432	0.052222	0.342733
119	C	0.147215	0.075058	0.429363
120	C	0.132807	0.067925	0.383158
121	H	0.138325	0.090188	0.44752
122	H	0.175105	0.089093	0.429624
123	H	0.138511	0.050988	0.447294
124	N	0.134766	0.069209	0.636379
125	C	0.152354	0.077895	0.34272
126	C	0.207055	0.132463	0.672888
127	C	0.188758	0.09617	0.674331
128	C	0.207281	0.078372	0.674699
129	H	0.194036	0.145625	0.672834
130	H	0.194432	0.052222	0.676067
131	C	0.147215	0.075058	0.762697
132	C	0.132807	0.067925	0.716492
133	H	0.138325	0.090188	0.780854
134	H	0.175105	0.089093	0.762958
135	H	0.138511	0.050988	0.780628
136	N	0.134766	0.069209	0.969713
137	C	0.152354	0.077895	0.676054
138	C	0.207055	0.632464	0.006222
139	H	0.194036	0.645626	0.006168
140	N	0.134765	0.569209	0.303047
141	C	0.207055	0.632464	0.339554
142	C	0.188757	0.596169	0.340997
143	C	0.20728	0.578372	0.341365
144	H	0.194036	0.645626	0.339503
145	H	0.194432	0.552222	0.342733
146	C	0.147215	0.575058	0.429363
147	C	0.132807	0.567925	0.383158
148	H	0.138325	0.590189	0.44752
149	H	0.175104	0.589092	0.429624
150	H	0.13851	0.550987	0.447294
151	N	0.134765	0.569209	0.636379
152	C	0.152354	0.577894	0.34272
153	C	0.207055	0.632464	0.672888
154	C	0.188757	0.596169	0.674331
155	C	0.20728	0.578372	0.674699
156	H	0.194036	0.645626	0.672834
157	H	0.194432	0.552222	0.676067
158	C	0.147215	0.575058	0.762697
159	C	0.132807	0.567925	0.716492
160	H	0.138325	0.590189	0.780854
161	H	0.175104	0.589092	0.762958
162	H	0.13851	0.550987	0.780628
163	N	0.134765	0.569209	0.969713
164	C	0.152354	0.577894	0.676054
165	C	0.243447	0.096337	0.006715
166	C	0.260839	0.132373	0.005036
167	C	0.243227	0.15084	0.004942
168	H	0.287113	0.14557	0.004232
169	C	0.308726	0.079749	0.296835
170	H	0.303512	0.063154	0.229172
171	N	0.279603	0.081456	0.301132
172	C	0.270389	0.190493	0.250526
173	C	0.280762	0.204371	0.296726
174	H	0.26925	0.209565	0.229116
175	H	0.245315	0.16738	0.24981
176	H	0.289157	0.184512	0.236497
177	N	0.311564	0.233518	0.30096
178	C	0.263554	0.187058	0.336823
179	C	0.243447	0.096337	0.340047
180	C	0.260839	0.132373	0.338368
181	C	0.243227	0.15084	0.338274
182	H	0.287113	0.14557	0.337564
183	C	0.308726	0.079749	0.630169
184	H	0.303512	0.063154	0.562506
185	N	0.279603	0.081456	0.634467
186	C	0.264032	0.080719	0.340807
187	C	0.280769	0.07973	0.380918
188	C	0.269468	0.082893	0.426704
189	H	0.270162	0.107292	0.430208
190	H	0.285926	0.081553	0.452699
191	H	0.243389	0.062137	0.432448
192	N	0.311234	0.080591	0.376729
193	C	0.270389	0.190493	0.583859
194	C	0.280762	0.204371	0.630061
195	H	0.26925	0.209565	0.562449
196	H	0.245315	0.16738	0.583143
197	H	0.289157	0.184512	0.569831
198	N	0.311564	0.233518	0.634295
199	C	0.308652	0.232326	0.380844
200	H	0.305322	0.227071	0.452608
201	N	0.279088	0.201853	0.376573
202	C	0.263554	0.187058	0.670158
203	C	0.243447	0.096337	0.673381
204	C	0.260839	0.132373	0.671702
205	C	0.243227	0.15084	0.671608
206	H	0.287113	0.14557	0.670898
207	C	0.308726	0.079749	0.963503
208	H	0.303512	0.063154	0.89584
209	N	0.279603	0.081456	0.967801
210	C	0.264032	0.080719	0.674141
211	C	0.280769	0.07973	0.714252
212	C	0.269468	0.082893	0.760038
213	H	0.270162	0.107292	0.763542
214	H	0.285926	0.081553	0.786033
215	H	0.243389	0.062137	0.765782
216	N	0.311234	0.080591	0.710063
217	C	0.270389	0.190493	0.917193
218	C	0.280762	0.204371	0.963395
219	H	0.26925	0.209565	0.895783
220	H	0.245315	0.16738	0.916477
221	H	0.289157	0.184512	0.903165
222	N	0.311564	0.233518	0.967629
223	C	0.308652	0.232326	0.714178
224	H	0.305322	0.227071	0.785942
225	N	0.279088	0.201853	0.709907
226	C	0.263554	0.187058	0.003492
227	C	0.243447	0.596338	0.006715
228	C	0.260839	0.632374	0.005036
229	C	0.243226	0.650839	0.004942
230	H	0.287112	0.645569	0.004232
231	C	0.308726	0.57975	0.296835
232	H	0.303511	0.563154	0.229172
233	N	0.279601	0.581455	0.301132
234	C	0.270389	0.690493	0.250526
235	C	0.280762	0.704371	0.296726
236	H	0.26925	0.709566	0.229116
237	H	0.245315	0.667381	0.24981
238	H	0.289157	0.684513	0.236497
239	N	0.311564	0.73352	0.30096
240	C	0.263553	0.687057	0.336823
241	C	0.243447	0.596338	0.340047
242	C	0.260839	0.632374	0.338368
243	C	0.243226	0.650839	0.338274
244	H	0.287112	0.645569	0.337564
245	C	0.308726	0.57975	0.630169
246	H	0.303511	0.563154	0.562506
247	N	0.279601	0.581455	0.634467
248	C	0.264032	0.580719	0.340807
249	C	0.280769	0.57973	0.380918
250	C	0.269468	0.582892	0.426704
251	H	0.270162	0.607293	0.430208
252	H	0.285925	0.581552	0.452699
253	H	0.243389	0.562137	0.432448
254	N	0.311234	0.580591	0.376729
255	C	0.270389	0.690493	0.583859
256	C	0.280762	0.704371	0.630061
257	H	0.26925	0.709566	0.562449
258	H	0.245315	0.667381	0.583143
259	H	0.289157	0.684513	0.569831
260	N	0.311564	0.73352	0.634295
261	C	0.308652	0.732326	0.380844
262	H	0.305322	0.727072	0.452608
263	N	0.279087	0.701852	0.376573
264	C	0.263553	0.687057	0.670158
265	C	0.243447	0.596338	0.673381
266	C	0.260839	0.632374	0.671702
267	C	0.243226	0.650839	0.671608
268	H	0.287112	0.645569	0.670898
269	C	0.308726	0.57975	0.963503
270	H	0.303511	0.563154	0.89584
271	N	0.279601	0.581455	0.967801
272	C	0.264032	0.580719	0.674141
273	C	0.280769	0.57973	0.714252
274	C	0.269468	0.582892	0.760038
275	H	0.270162	0.607293	0.763542
276	H	0.285925	0.581552	0.786033
277	H	0.243389	0.562137	0.765782
278	N	0.311234	0.580591	0.710063
279	C	0.270389	0.690493	0.917193
280	C	0.280762	0.704371	0.963395
281	H	0.26925	0.709566	0.895783
282	H	0.245315	0.667381	0.916477
283	H	0.289157	0.684513	0.903165
284	N	0.311564	0.73352	0.967629
285	C	0.308652	0.732326	0.714178
286	H	0.305322	0.727072	0.785942
287	N	0.279087	0.701852	0.709907
288	C	0.263553	0.687057	0.003492
289	C	0.489315	0.023604	0.007775
290	C	0.471552	0.487395	0.007802
291	C	0.489303	0.468923	0.007756
292	H	0.445352	0.47431	0.00731
293	C	0.416935	0.095974	0.007659
294	C	0.434746	0.132282	0.007964
295	H	0.460907	0.145579	0.009304
296	C	0.417056	0.324216	0.007611
297	C	0.38073	0.305721	0.007908
298	H	0.367428	0.318582	0.009224
299	C	0.437942	0.075444	0.096032
300	C	0.445078	0.068171	0.049827
301	H	0.422726	0.051431	0.114153
302	H	0.423982	0.089372	0.096289
303	H	0.462019	0.090729	0.114002
304	N	0.462439	0.050744	0.046186
305	C	0.435194	0.077831	0.00939
306	C	0.437537	0.365735	0.095989
307	C	0.444807	0.380141	0.049787
308	H	0.46156	0.374576	0.114129
309	H	0.423651	0.337856	0.096243
310	H	0.422199	0.374476	0.113943
311	N	0.462189	0.414918	0.046154
312	C	0.435193	0.360606	0.009347
313	C	0.432386	0.18668	0.007351
314	C	0.433401	0.20431	0.047561
315	C	0.430308	0.189818	0.093309
316	H	0.405909	0.16611	0.096834
317	H	0.431675	0.207583	0.119361
318	H	0.45109	0.184509	0.098949
319	N	0.432494	0.233883	0.04347
320	C	0.326289	0.248996	0.007355
321	C	0.323127	0.243542	0.093301
322	H	0.346823	0.242805	0.096758
323	H	0.32847	0.269613	0.099121
324	C	0.489314	0.523605	0.007775
325	C	0.471553	0.987396	0.007802
326	C	0.489303	0.968924	0.007756
327	H	0.445351	0.974309	0.00731
328	C	0.416935	0.595975	0.007659
329	C	0.434745	0.632282	0.007964
330	H	0.460907	0.64558	0.009304
331	C	0.417055	0.824216	0.007611
332	C	0.380729	0.80572	0.007908
333	H	0.367427	0.818581	0.009224
334	C	0.437942	0.575445	0.096032
335	C	0.445077	0.568171	0.049827
336	H	0.422726	0.551432	0.114153
337	H	0.423981	0.589371	0.096289
338	H	0.46202	0.590728	0.114002
339	N	0.462438	0.550744	0.046186
340	C	0.435192	0.57783	0.00939
341	C	0.437535	0.865734	0.095989
342	C	0.444808	0.880143	0.049787
343	H	0.461559	0.874575	0.114129
344	H	0.42365	0.837858	0.096243
345	H	0.422198	0.874475	0.113943
346	N	0.462188	0.914917	0.046154
347	C	0.435194	0.860608	0.009347
348	C	0.432386	0.686681	0.007351
349	C	0.4334	0.704309	0.047561
350	C	0.430308	0.689818	0.093309
351	H	0.405909	0.66611	0.096834
352	H	0.431674	0.707582	0.119361
353	H	0.451092	0.68451	0.098949
354	N	0.432492	0.733883	0.04347
355	C	0.326288	0.748995	0.007355
356	C	0.323126	0.743542	0.093301
357	H	0.346823	0.742805	0.096758
358	H	0.328471	0.769615	0.099121
359	C	0.544001	0.023583	0.007767
360	C	0.525535	0.04134	0.007812
361	C	0.989315	0.023604	0.007775
362	C	0.971552	0.487395	0.007802
363	C	0.989303	0.468923	0.007756
364	C	0.525529	0.487377	0.007814
365	H	0.945351	0.47431	0.00731
366	H	0.538629	0.474276	0.007303
367	H	0.538639	0.06753	0.007329
368	C	0.688758	0.09617	0.007663
369	C	0.70728	0.078372	0.008031
370	H	0.694432	0.052222	0.0094
371	C	0.916935	0.095974	0.007659
372	C	0.934744	0.132282	0.007964
373	H	0.960907	0.145579	0.009304
374	C	0.917054	0.324216	0.007611
375	C	0.88073	0.305721	0.007908
376	H	0.867429	0.318582	0.009224
377	C	0.647215	0.075058	0.096029
378	C	0.632806	0.067925	0.049823
379	H	0.638325	0.090188	0.114188
380	H	0.675103	0.089093	0.09629
381	H	0.638511	0.050988	0.11396
382	N	0.598018	0.050489	0.04618
383	C	0.652353	0.077895	0.009387
384	C	0.937942	0.075444	0.096032
385	C	0.945078	0.068171	0.049827
386	H	0.922726	0.051431	0.114153
387	H	0.923982	0.089372	0.096289
388	H	0.962019	0.090729	0.114002
389	N	0.962437	0.050744	0.046186
390	C	0.935192	0.077831	0.00939
391	C	0.937537	0.365735	0.095989
392	C	0.944807	0.380141	0.049787
393	H	0.96156	0.374576	0.114129
394	H	0.923649	0.337856	0.096243
395	H	0.922199	0.374476	0.113943
396	N	0.962189	0.414918	0.046154
397	C	0.935193	0.360606	0.009347
398	C	0.764032	0.080719	0.007473
399	C	0.780769	0.07973	0.047585
400	C	0.769468	0.082893	0.093369
401	H	0.770162	0.107292	0.096873
402	H	0.785926	0.081553	0.119367
403	H	0.743388	0.062137	0.099115
404	N	0.811234	0.080591	0.043396
405	C	0.932386	0.18668	0.007351
406	C	0.933399	0.20431	0.047561
407	C	0.930308	0.189818	0.093309
408	H	0.905909	0.16611	0.096834
409	H	0.931675	0.207583	0.119361
410	H	0.95109	0.184509	0.098949
411	N	0.932494	0.233883	0.04347
412	C	0.826288	0.248996	0.007355
413	C	0.808652	0.232326	0.047509
414	C	0.823127	0.243542	0.093301
415	H	0.846823	0.242805	0.096758
416	H	0.805322	0.227071	0.119275
417	H	0.82847	0.269613	0.099121
418	N	0.779086	0.201853	0.043238
419	C	0.543999	0.523582	0.007767
420	C	0.525537	0.541341	0.007812
421	C	0.989314	0.523605	0.007775
422	C	0.971552	0.987396	0.007802
423	C	0.989303	0.968924	0.007756
424	C	0.525529	0.987376	0.007814
425	H	0.94535	0.974309	0.00731
426	H	0.538628	0.974275	0.007303
427	H	0.538639	0.567529	0.007329
428	C	0.688756	0.596169	0.007663
429	C	0.707279	0.578372	0.008031
430	H	0.69443	0.552222	0.0094
431	C	0.916934	0.595975	0.007659
432	C	0.934745	0.632282	0.007964
433	H	0.960908	0.64558	0.009304
434	C	0.917055	0.824216	0.007611
435	C	0.880729	0.80572	0.007908
436	H	0.867427	0.818581	0.009224
437	C	0.647214	0.575058	0.096029
438	C	0.632807	0.567925	0.049823
439	H	0.638324	0.590189	0.114188
440	H	0.675104	0.589092	0.09629
441	H	0.638509	0.550987	0.11396
442	N	0.598017	0.550489	0.04618
443	C	0.652354	0.577894	0.009387
444	C	0.937941	0.575445	0.096032
445	C	0.945077	0.568171	0.049827
446	H	0.922725	0.551432	0.114153
447	H	0.92398	0.589371	0.096289
448	H	0.96202	0.590728	0.114002
449	N	0.962438	0.550744	0.046186
450	C	0.935192	0.57783	0.00939
451	C	0.937535	0.865734	0.095989
452	C	0.944807	0.880143	0.049787
453	H	0.961558	0.874575	0.114129
454	H	0.923651	0.837858	0.096243
455	H	0.922198	0.874475	0.113943
456	N	0.962187	0.914917	0.046154
457	C	0.935193	0.860608	0.009347
458	C	0.764031	0.580719	0.007473
459	C	0.780768	0.57973	0.047585
460	C	0.769467	0.582892	0.093369
461	H	0.770162	0.607293	0.096873
462	H	0.785924	0.581552	0.119367
463	H	0.743389	0.562137	0.099115
464	N	0.811233	0.580591	0.043396
465	C	0.932385	0.686681	0.007351
466	C	0.9334	0.704309	0.047561
467	C	0.930307	0.689818	0.093309
468	H	0.905908	0.66611	0.096834
469	H	0.931673	0.707582	0.119361
470	H	0.95109	0.68451	0.098949
471	N	0.932492	0.733883	0.04347
472	C	0.826287	0.748995	0.007355
473	C	0.808651	0.732326	0.047509
474	C	0.823126	0.743542	0.093301
475	H	0.846824	0.742805	0.096758
476	H	0.805321	0.727072	0.119275
477	H	0.82847	0.769615	0.099121
478	N	0.779087	0.701852	0.043238
479	C	0.416775	0.150478	0.006631
480	C	0.38072	0.131833	0.004992
481	C	0.362245	0.095769	0.004958
482	C	0.380625	0.077984	0.006276
483	H	0.367453	0.051813	0.006286
484	H	0.367514	0.144899	0.004202
485	C	0.362522	0.26957	0.006621
486	C	0.381172	0.252166	0.005026
487	C	0.417253	0.269746	0.004965
488	C	0.435049	0.3059	0.006266
489	H	0.461233	0.318893	0.0063
490	H	0.368092	0.225903	0.004283
491	C	0.47111	0.041838	0.339858
492	C	0.461254	0.051514	0.29947
493	C	0.468976	0.043644	0.253966
494	H	0.496595	0.055391	0.249615
495	H	0.459169	0.053365	0.227593
496	H	0.457212	0.016026	0.249762
497	N	0.443866	0.068915	0.30305
498	C	0.471082	0.432497	0.339831
499	C	0.461454	0.412975	0.29944
500	C	0.469332	0.428568	0.253941
501	H	0.457542	0.444394	0.249572
502	H	0.459647	0.40905	0.227563
503	H	0.496959	0.444452	0.249761
504	N	0.444099	0.378198	0.303013
505	C	0.322606	0.083311	0.250622
506	H	0.345707	0.081315	0.249866
507	H	0.328625	0.108081	0.236671
508	C	0.325997	0.079872	0.336971
509	C	0.429816	0.242746	0.250685
510	C	0.433267	0.232307	0.296874
511	H	0.450034	0.243867	0.229289
512	H	0.431814	0.267834	0.250004
513	H	0.405069	0.224035	0.23661
514	N	0.43163	0.201513	0.301043
515	C	0.433128	0.249373	0.337104
516	C	0.489315	0.023604	0.341108
517	C	0.471552	0.487395	0.341135
518	C	0.489303	0.468923	0.341091
519	H	0.445352	0.47431	0.340645
520	C	0.416775	0.150478	0.339966
521	C	0.38072	0.131833	0.338324
522	C	0.362245	0.095769	0.338294
523	C	0.380625	0.077984	0.339608
524	C	0.416935	0.095974	0.340993
525	C	0.434746	0.132282	0.341297
526	H	0.367453	0.051813	0.339618
527	H	0.460907	0.145579	0.342639
528	H	0.367514	0.144899	0.337534
529	C	0.362522	0.26957	0.339953
530	C	0.381172	0.252166	0.338358
531	C	0.417253	0.269746	0.338297
532	C	0.435049	0.3059	0.339598
533	C	0.417056	0.324216	0.340946
534	C	0.38073	0.305721	0.34124
535	H	0.461233	0.318893	0.339635
536	H	0.367428	0.318582	0.342558
537	H	0.368092	0.225903	0.337614
538	C	0.437942	0.075444	0.429367
539	C	0.445078	0.068171	0.383161
540	H	0.422726	0.051431	0.447486
541	H	0.423982	0.089372	0.429624
542	H	0.462019	0.090729	0.447337
543	N	0.462439	0.050744	0.379519
544	C	0.47111	0.041838	0.673189
545	C	0.461254	0.051514	0.632805
546	C	0.468976	0.043644	0.587298
547	H	0.496595	0.055391	0.582947
548	H	0.459169	0.053365	0.560925
549	H	0.457212	0.016026	0.583096
550	N	0.443866	0.068915	0.636386
551	C	0.435194	0.077831	0.342723
552	C	0.437537	0.365735	0.429323
553	C	0.444807	0.380141	0.383121
554	H	0.46156	0.374576	0.447462
555	H	0.423651	0.337856	0.429576
556	H	0.422199	0.374476	0.447277
557	N	0.462189	0.414918	0.379489
558	C	0.471082	0.432497	0.673165
559	C	0.461454	0.412975	0.632774
560	C	0.469332	0.428568	0.587275
561	H	0.457542	0.444394	0.582906
562	H	0.459647	0.40905	0.560898
563	H	0.496959	0.444452	0.583096
564	N	0.444099	0.378198	0.636345
565	C	0.435193	0.360606	0.342679
566	C	0.322606	0.083311	0.583957
567	H	0.345707	0.081315	0.5832
568	H	0.328625	0.108081	0.570004
569	C	0.325997	0.079872	0.670307
570	C	0.429816	0.242746	0.584018
571	C	0.433267	0.232307	0.630206
572	H	0.450034	0.243867	0.562621
573	H	0.431814	0.267834	0.583339
574	H	0.405069	0.224035	0.569943
575	N	0.43163	0.201513	0.634376
576	C	0.432386	0.18668	0.340686
577	C	0.433401	0.20431	0.380894
578	C	0.430308	0.189818	0.426644
579	H	0.405909	0.16611	0.430167
580	H	0.431675	0.207583	0.452696
581	H	0.45109	0.184509	0.432282
582	N	0.432494	0.233883	0.376803
583	C	0.433128	0.249373	0.670439
584	C	0.326289	0.248996	0.340689
585	C	0.323127	0.243542	0.426634
586	H	0.346823	0.242805	0.430093
587	H	0.32847	0.269613	0.432455
588	C	0.489315	0.023604	0.674442
589	C	0.471552	0.487395	0.674469
590	C	0.489303	0.468923	0.674425
591	H	0.445352	0.47431	0.673976
592	C	0.416775	0.150478	0.6733
593	C	0.38072	0.131833	0.671658
594	C	0.362245	0.095769	0.671624
595	C	0.380625	0.077984	0.672942
596	C	0.416935	0.095974	0.674327
597	C	0.434746	0.132282	0.674631
598	H	0.367453	0.051813	0.672952
599	H	0.460907	0.145579	0.675973
600	H	0.367514	0.144899	0.670868
601	C	0.362522	0.26957	0.673287
602	C	0.381172	0.252166	0.671692
603	C	0.417253	0.269746	0.671631
604	C	0.435049	0.3059	0.672932
605	C	0.417056	0.324216	0.67428
606	C	0.38073	0.305721	0.674574
607	H	0.461233	0.318893	0.672966
608	H	0.367428	0.318582	0.675892
609	H	0.368092	0.225903	0.670949
610	C	0.437942	0.075444	0.762701
611	C	0.445078	0.068171	0.716495
612	H	0.422726	0.051431	0.78082
613	H	0.423982	0.089372	0.762958
614	H	0.462019	0.090729	0.780668
615	N	0.462439	0.050744	0.712853
616	C	0.47111	0.041838	0.006523
617	C	0.461254	0.051514	0.966139
618	C	0.468976	0.043644	0.920633
619	H	0.496595	0.055391	0.916281
620	H	0.459169	0.053365	0.894259
621	H	0.457212	0.016026	0.91643
622	N	0.443866	0.068915	0.969717
623	C	0.435194	0.077831	0.676057
624	C	0.437537	0.365735	0.762657
625	C	0.444807	0.380141	0.716455
626	H	0.46156	0.374576	0.780796
627	H	0.423651	0.337856	0.76291
628	H	0.422199	0.374476	0.780611
629	N	0.462189	0.414918	0.712823
630	C	0.471082	0.432497	0.006496
631	C	0.461454	0.412975	0.966108
632	C	0.469332	0.428568	0.920609
633	H	0.457542	0.444394	0.91624
634	H	0.459647	0.40905	0.894229
635	H	0.496959	0.444452	0.91643
636	N	0.444099	0.378198	0.969679
637	C	0.435193	0.360606	0.676013
638	C	0.322606	0.083311	0.917291
639	H	0.345707	0.081315	0.916534
640	H	0.328625	0.108081	0.903338
641	C	0.325997	0.079872	0.003637
642	C	0.429816	0.242746	0.917352
643	C	0.433267	0.232307	0.96354
644	H	0.450034	0.243867	0.895955
645	H	0.431814	0.267834	0.916673
646	H	0.405069	0.224035	0.903277
647	N	0.43163	0.201513	0.96771
648	C	0.432386	0.18668	0.67402
649	C	0.433401	0.20431	0.714228
650	C	0.430308	0.189818	0.759978
651	H	0.405909	0.16611	0.763502
652	H	0.431675	0.207583	0.78603
653	H	0.45109	0.184509	0.765617
654	N	0.432494	0.233883	0.710137
655	C	0.433128	0.249373	0.003773
656	C	0.326289	0.248996	0.674023
657	C	0.323127	0.243542	0.759968
658	H	0.346823	0.242805	0.763424
659	H	0.32847	0.269613	0.765789
660	C	0.416774	0.650478	0.006631
661	C	0.380719	0.631832	0.004992
662	C	0.362245	0.59577	0.004958
663	C	0.380625	0.577983	0.006276
664	H	0.367453	0.551813	0.006286
665	H	0.367513	0.6449	0.004202
666	C	0.362522	0.769569	0.006621
667	C	0.381172	0.752165	0.005026
668	C	0.417253	0.769748	0.004965
669	C	0.43505	0.805902	0.006266
670	H	0.461234	0.818895	0.0063
671	H	0.368093	0.725903	0.004283
672	C	0.47111	0.541837	0.339858
673	C	0.461254	0.551514	0.29947
674	C	0.468976	0.543644	0.253966
675	H	0.496595	0.555392	0.249615
676	H	0.459168	0.553365	0.227593
677	H	0.457212	0.516027	0.249762
678	N	0.443866	0.568915	0.30305
679	C	0.471081	0.932497	0.339831
680	C	0.461454	0.912974	0.29944
681	C	0.469331	0.928567	0.253941
682	H	0.45754	0.944393	0.249572
683	H	0.459646	0.909049	0.227563
684	H	0.49696	0.944454	0.249761
685	N	0.444098	0.878198	0.303013
686	C	0.322606	0.583311	0.250622
687	H	0.345707	0.581315	0.249866
688	H	0.328625	0.608081	0.236671
689	C	0.325998	0.579873	0.336971
690	C	0.429816	0.742747	0.250685
691	C	0.433268	0.732308	0.296874
692	H	0.450033	0.743866	0.229289
693	H	0.431813	0.767833	0.250004
694	H	0.405069	0.724034	0.23661
695	N	0.431629	0.701512	0.301043
696	C	0.433128	0.749374	0.337104
697	C	0.489314	0.523605	0.341108
698	C	0.471553	0.987396	0.341135
699	C	0.489303	0.968924	0.341091
700	H	0.445351	0.974309	0.340645
701	C	0.416774	0.650478	0.339966
702	C	0.380719	0.631832	0.338324
703	C	0.362245	0.59577	0.338294
704	C	0.380625	0.577983	0.339608
705	C	0.416935	0.595975	0.340993
706	C	0.434745	0.632282	0.341297
707	H	0.367453	0.551813	0.339618
708	H	0.460907	0.64558	0.342639
709	H	0.367513	0.6449	0.337534
710	C	0.362522	0.769569	0.339953
711	C	0.381172	0.752165	0.338358
712	C	0.417253	0.769748	0.338297
713	C	0.43505	0.805902	0.339598
714	C	0.417055	0.824216	0.340946
715	C	0.380729	0.80572	0.34124
716	H	0.461234	0.818895	0.339635
717	H	0.367427	0.818581	0.342558
718	H	0.368093	0.725903	0.337614
719	C	0.437942	0.575445	0.429367
720	C	0.445077	0.568171	0.383161
721	H	0.422726	0.551432	0.447486
722	H	0.423981	0.589371	0.429624
723	H	0.46202	0.590728	0.447337
724	N	0.462438	0.550744	0.379519
725	C	0.47111	0.541837	0.673189
726	C	0.461254	0.551514	0.632805
727	C	0.468976	0.543644	0.587298
728	H	0.496595	0.555392	0.582947
729	H	0.459168	0.553365	0.560925
730	H	0.457212	0.516027	0.583096
731	N	0.443866	0.568915	0.636386
732	C	0.435192	0.57783	0.342723
733	C	0.437535	0.865734	0.429323
734	C	0.444808	0.880143	0.383121
735	H	0.461559	0.874575	0.447462
736	H	0.42365	0.837858	0.429576
737	H	0.422198	0.874475	0.447277
738	N	0.462188	0.914917	0.379489
739	C	0.471081	0.932497	0.673165
740	C	0.461454	0.912974	0.632774
741	C	0.469331	0.928567	0.587275
742	H	0.45754	0.944393	0.582906
743	H	0.459646	0.909049	0.560898
744	H	0.49696	0.944454	0.583096
745	N	0.444098	0.878198	0.636345
746	C	0.435194	0.860608	0.342679
747	C	0.322606	0.583311	0.583957
748	H	0.345707	0.581315	0.5832
749	H	0.328625	0.608081	0.570004
750	C	0.325998	0.579873	0.670307
751	C	0.429816	0.742747	0.584018
752	C	0.433268	0.732308	0.630206
753	H	0.450033	0.743866	0.562621
754	H	0.431813	0.767833	0.583339
755	H	0.405069	0.724034	0.569943
756	N	0.431629	0.701512	0.634376
757	C	0.432386	0.686681	0.340686
758	C	0.4334	0.704309	0.380894
759	C	0.430308	0.689818	0.426644
760	H	0.405909	0.66611	0.430167
761	H	0.431674	0.707582	0.452696
762	H	0.451092	0.68451	0.432282
763	N	0.432492	0.733883	0.376803
764	C	0.433128	0.749374	0.670439
765	C	0.326288	0.748995	0.340689
766	C	0.323126	0.743542	0.426634
767	H	0.346823	0.742805	0.430093
768	H	0.328471	0.769615	0.432455
769	C	0.489314	0.523605	0.674442
770	C	0.471553	0.987396	0.674469
771	C	0.489303	0.968924	0.674425
772	H	0.445351	0.974309	0.673976
773	C	0.416774	0.650478	0.6733
774	C	0.380719	0.631832	0.671658
775	C	0.362245	0.59577	0.671624
776	C	0.380625	0.577983	0.672942
777	C	0.416935	0.595975	0.674327
778	C	0.434745	0.632282	0.674631
779	H	0.367453	0.551813	0.672952
780	H	0.460907	0.64558	0.675973
781	H	0.367513	0.6449	0.670868
782	C	0.362522	0.769569	0.673287
783	C	0.381172	0.752165	0.671692
784	C	0.417253	0.769748	0.671631
785	C	0.43505	0.805902	0.672932
786	C	0.417055	0.824216	0.67428
787	C	0.380729	0.80572	0.674574
788	H	0.461234	0.818895	0.672966
789	H	0.367427	0.818581	0.675892
790	H	0.368093	0.725903	0.670949
791	C	0.437942	0.575445	0.762701
792	C	0.445077	0.568171	0.716495
793	H	0.422726	0.551432	0.78082
794	H	0.423981	0.589371	0.762958
795	H	0.46202	0.590728	0.780668
796	N	0.462438	0.550744	0.712853
797	C	0.47111	0.541837	0.006523
798	C	0.461254	0.551514	0.966139
799	C	0.468976	0.543644	0.920633
800	H	0.496595	0.555392	0.916281
801	H	0.459168	0.553365	0.894259
802	H	0.457212	0.516027	0.91643
803	N	0.443866	0.568915	0.969717
804	C	0.435192	0.57783	0.676057
805	C	0.437535	0.865734	0.762657
806	C	0.444808	0.880143	0.716455
807	H	0.461559	0.874575	0.780796
808	H	0.42365	0.837858	0.76291
809	H	0.422198	0.874475	0.780611
810	N	0.462188	0.914917	0.712823
811	C	0.471081	0.932497	0.006496
812	C	0.461454	0.912974	0.966108
813	C	0.469331	0.928567	0.920609
814	H	0.45754	0.944393	0.91624
815	H	0.459646	0.909049	0.894229
816	H	0.49696	0.944454	0.91643
817	N	0.444098	0.878198	0.969679
818	C	0.435194	0.860608	0.676013
819	C	0.322606	0.583311	0.917291
820	H	0.345707	0.581315	0.916534
821	H	0.328625	0.608081	0.903338
822	C	0.325998	0.579873	0.003637
823	C	0.429816	0.742747	0.917352
824	C	0.433268	0.732308	0.96354
825	H	0.450033	0.743866	0.895955
826	H	0.431813	0.767833	0.916673
827	H	0.405069	0.724034	0.903277
828	N	0.431629	0.701512	0.96771
829	C	0.432386	0.686681	0.67402
830	C	0.4334	0.704309	0.714228
831	C	0.430308	0.689818	0.759978
832	H	0.405909	0.66611	0.763502
833	H	0.431674	0.707582	0.78603
834	H	0.451092	0.68451	0.765617
835	N	0.432492	0.733883	0.710137
836	C	0.433128	0.749374	0.003773
837	C	0.326288	0.748995	0.674023
838	C	0.323126	0.743542	0.759968
839	H	0.346823	0.742805	0.763424
840	H	0.328471	0.769615	0.765789
841	C	0.743447	0.096337	0.006715
842	C	0.760838	0.132373	0.005036
843	C	0.743226	0.15084	0.004942
844	C	0.707055	0.132463	0.006222
845	H	0.694034	0.145625	0.006168
846	H	0.787113	0.14557	0.004232
847	C	0.916775	0.150478	0.006631
848	C	0.88072	0.131833	0.004992
849	C	0.862245	0.095769	0.004958
850	C	0.880625	0.077984	0.006276
851	H	0.867453	0.051813	0.006286
852	H	0.867512	0.144899	0.004202
853	C	0.862522	0.26957	0.006621
854	C	0.881172	0.252166	0.005026
855	C	0.917251	0.269746	0.004965
856	C	0.935049	0.3059	0.006266
857	H	0.961233	0.318893	0.0063
858	H	0.868092	0.225903	0.004283
859	C	0.58044	0.041799	0.339848
860	C	0.599974	0.051748	0.299463
861	C	0.584381	0.04404	0.25396
862	H	0.568579	0.016433	0.249564
863	H	0.603912	0.05391	0.227587
864	H	0.568457	0.055742	0.249799
865	N	0.634764	0.069209	0.303047
866	C	0.97111	0.041838	0.339858
867	C	0.961254	0.051514	0.29947
868	C	0.968976	0.043644	0.253966
869	H	0.996595	0.055391	0.249615
870	H	0.959169	0.053365	0.227593
871	H	0.957212	0.016026	0.249762
872	N	0.943866	0.068915	0.30305
873	C	0.971082	0.432497	0.339831
874	C	0.961454	0.412975	0.29944
875	C	0.969332	0.428568	0.253941
876	H	0.957542	0.444394	0.249572
877	H	0.959647	0.40905	0.227563
878	H	0.996959	0.444452	0.249761
879	N	0.944099	0.378198	0.303013
880	C	0.822606	0.083311	0.250622
881	C	0.808726	0.079749	0.296835
882	H	0.803512	0.063154	0.229172
883	H	0.845707	0.081315	0.249866
884	H	0.828625	0.108081	0.236671
885	N	0.779601	0.081456	0.301132
886	C	0.825997	0.079872	0.336971
887	C	0.929816	0.242746	0.250685
888	C	0.933267	0.232307	0.296874
889	H	0.950034	0.243867	0.229289
890	H	0.931814	0.267834	0.250004
891	H	0.905069	0.224035	0.23661
892	N	0.931628	0.201513	0.301043
893	C	0.933128	0.249373	0.337104
894	C	0.770389	0.190493	0.250526
895	C	0.780762	0.204371	0.296726
896	H	0.769249	0.209565	0.229116
897	H	0.745314	0.16738	0.24981
898	H	0.789157	0.184512	0.236497
899	N	0.811564	0.233518	0.30096
900	C	0.763553	0.187058	0.336823
901	C	0.544001	0.023583	0.341101
902	C	0.525535	0.04134	0.341145
903	C	0.989315	0.023604	0.341108
904	C	0.971552	0.487395	0.341135
905	C	0.989303	0.468923	0.341091
906	C	0.525529	0.487377	0.341149
907	H	0.945351	0.47431	0.340645
908	H	0.538629	0.474276	0.340639
909	H	0.538639	0.06753	0.340662
910	C	0.743447	0.096337	0.340047
911	C	0.760838	0.132373	0.338368
912	C	0.743226	0.15084	0.338274
913	C	0.707055	0.132463	0.339554
914	C	0.688758	0.09617	0.340997
915	C	0.70728	0.078372	0.341365
916	H	0.694034	0.145625	0.339503
917	H	0.694432	0.052222	0.342733
918	H	0.787113	0.14557	0.337564
919	C	0.916775	0.150478	0.339966
920	C	0.88072	0.131833	0.338324
921	C	0.862245	0.095769	0.338294
922	C	0.880625	0.077984	0.339608
923	C	0.916935	0.095974	0.340993
924	C	0.934744	0.132282	0.341297
925	H	0.867453	0.051813	0.339618
926	H	0.960907	0.145579	0.342639
927	H	0.867512	0.144899	0.337534
928	C	0.862522	0.26957	0.339953
929	C	0.881172	0.252166	0.338358
930	C	0.917251	0.269746	0.338297
931	C	0.935049	0.3059	0.339598
932	C	0.917054	0.324216	0.340946
933	C	0.88073	0.305721	0.34124
934	H	0.961233	0.318893	0.339635
935	H	0.867429	0.318582	0.342558
936	H	0.868092	0.225903	0.337614
937	C	0.647215	0.075058	0.429363
938	C	0.632806	0.067925	0.383158
939	H	0.638325	0.090188	0.44752
940	H	0.675103	0.089093	0.429624
941	H	0.638511	0.050988	0.447294
942	N	0.598018	0.050489	0.379512
943	C	0.58044	0.041799	0.673182
944	C	0.599974	0.051748	0.632798
945	C	0.584381	0.04404	0.587295
946	H	0.568579	0.016433	0.5829
947	H	0.603912	0.05391	0.560922
948	H	0.568457	0.055742	0.583133
949	N	0.634764	0.069209	0.636379
950	C	0.652353	0.077895	0.34272
951	C	0.937942	0.075444	0.429367
952	C	0.945078	0.068171	0.383161
953	H	0.922726	0.051431	0.447486
954	H	0.923982	0.089372	0.429624
955	H	0.962019	0.090729	0.447337
956	N	0.962437	0.050744	0.379519
957	C	0.97111	0.041838	0.673189
958	C	0.961254	0.051514	0.632805
959	C	0.968976	0.043644	0.587298
960	H	0.996595	0.055391	0.582947
961	H	0.959169	0.053365	0.560925
962	H	0.957212	0.016026	0.583096
963	N	0.943866	0.068915	0.636386
964	C	0.935192	0.077831	0.342723
965	C	0.937537	0.365735	0.429323
966	C	0.944807	0.380141	0.383121
967	H	0.96156	0.374576	0.447462
968	H	0.923649	0.337856	0.429576
969	H	0.922199	0.374476	0.447277
970	N	0.962189	0.414918	0.379489
971	C	0.971082	0.432497	0.673165
972	C	0.961454	0.412975	0.632774
973	C	0.969332	0.428568	0.587275
974	H	0.957542	0.444394	0.582906
975	H	0.959647	0.40905	0.560898
976	H	0.996959	0.444452	0.583096
977	N	0.944099	0.378198	0.636345
978	C	0.935193	0.360606	0.342679
979	C	0.822606	0.083311	0.583957
980	C	0.808726	0.079749	0.630169
981	H	0.803512	0.063154	0.562506
982	H	0.845707	0.081315	0.5832
983	H	0.828625	0.108081	0.570004
984	N	0.779601	0.081456	0.634467
985	C	0.764032	0.080719	0.340807
986	C	0.780769	0.07973	0.380918
987	C	0.769468	0.082893	0.426704
988	H	0.770162	0.107292	0.430208
989	H	0.785926	0.081553	0.452699
990	H	0.743388	0.062137	0.432448
991	N	0.811234	0.080591	0.376729
992	C	0.825997	0.079872	0.670307
993	C	0.929816	0.242746	0.584018
994	C	0.933267	0.232307	0.630206
995	H	0.950034	0.243867	0.562621
996	H	0.931814	0.267834	0.583339
997	H	0.905069	0.224035	0.569943
998	N	0.931628	0.201513	0.634376
999	C	0.932386	0.18668	0.340686
1000	C	0.933399	0.20431	0.380894
1001	C	0.930308	0.189818	0.426644
1002	H	0.905909	0.16611	0.430167
1003	H	0.931675	0.207583	0.452696
1004	H	0.95109	0.184509	0.432282
1005	N	0.932494	0.233883	0.376803
1006	C	0.933128	0.249373	0.670439
1007	C	0.770389	0.190493	0.583859
1008	C	0.780762	0.204371	0.630061
1009	H	0.769249	0.209565	0.562449
1010	H	0.745314	0.16738	0.583143
1011	H	0.789157	0.184512	0.569831
1012	N	0.811564	0.233518	0.634295
1013	C	0.826288	0.248996	0.340689
1014	C	0.808652	0.232326	0.380844
1015	C	0.823127	0.243542	0.426634
1016	H	0.846823	0.242805	0.430093
1017	H	0.805322	0.227071	0.452608
1018	H	0.82847	0.269613	0.432455
1019	N	0.779086	0.201853	0.376573
1020	C	0.763553	0.187058	0.670158
1021	C	0.544001	0.023583	0.674435
1022	C	0.525535	0.04134	0.674479
1023	C	0.989315	0.023604	0.674442
1024	C	0.971552	0.487395	0.674469
1025	C	0.989303	0.468923	0.674425
1026	C	0.525529	0.487377	0.674483
1027	H	0.945351	0.47431	0.673976
1028	H	0.538629	0.474276	0.673969
1029	H	0.538639	0.06753	0.673996
1030	C	0.743447	0.096337	0.673381
1031	C	0.760838	0.132373	0.671702
1032	C	0.743226	0.15084	0.671608
1033	C	0.707055	0.132463	0.672888
1034	C	0.688758	0.09617	0.674331
1035	C	0.70728	0.078372	0.674699
1036	H	0.694034	0.145625	0.672834
1037	H	0.694432	0.052222	0.676067
1038	H	0.787113	0.14557	0.670898
1039	C	0.916775	0.150478	0.6733
1040	C	0.88072	0.131833	0.671658
1041	C	0.862245	0.095769	0.671624
1042	C	0.880625	0.077984	0.672942
1043	C	0.916935	0.095974	0.674327
1044	C	0.934744	0.132282	0.674631
1045	H	0.867453	0.051813	0.672952
1046	H	0.960907	0.145579	0.675973
1047	H	0.867512	0.144899	0.670868
1048	C	0.862522	0.26957	0.673287
1049	C	0.881172	0.252166	0.671692
1050	C	0.917251	0.269746	0.671631
1051	C	0.935049	0.3059	0.672932
1052	C	0.917054	0.324216	0.67428
1053	C	0.88073	0.305721	0.674574
1054	H	0.961233	0.318893	0.672966
1055	H	0.867429	0.318582	0.675892
1056	H	0.868092	0.225903	0.670949
1057	C	0.647215	0.075058	0.762697
1058	C	0.632806	0.067925	0.716492
1059	H	0.638325	0.090188	0.780854
1060	H	0.675103	0.089093	0.762958
1061	H	0.638511	0.050988	0.780628
1062	N	0.598018	0.050489	0.712846
1063	C	0.58044	0.041799	0.006516
1064	C	0.599974	0.051748	0.966132
1065	C	0.584381	0.04404	0.920626
1066	H	0.568579	0.016433	0.91623
1067	H	0.603912	0.05391	0.894256
1068	H	0.568457	0.055742	0.916467
1069	N	0.634764	0.069209	0.969713
1070	C	0.652353	0.077895	0.676054
1071	C	0.937942	0.075444	0.762701
1072	C	0.945078	0.068171	0.716495
1073	H	0.922726	0.051431	0.78082
1074	H	0.923982	0.089372	0.762958
1075	H	0.962019	0.090729	0.780668
1076	N	0.962437	0.050744	0.712853
1077	C	0.97111	0.041838	0.006523
1078	C	0.961254	0.051514	0.966139
1079	C	0.968976	0.043644	0.920633
1080	H	0.996595	0.055391	0.916281
1081	H	0.959169	0.053365	0.894259
1082	H	0.957212	0.016026	0.91643
1083	N	0.943866	0.068915	0.969717
1084	C	0.935192	0.077831	0.676057
1085	C	0.937537	0.365735	0.762657
1086	C	0.944807	0.380141	0.716455
1087	H	0.96156	0.374576	0.780796
1088	H	0.923649	0.337856	0.76291
1089	H	0.922199	0.374476	0.780611
1090	N	0.962189	0.414918	0.712823
1091	C	0.971082	0.432497	0.006496
1092	C	0.961454	0.412975	0.966108
1093	C	0.969332	0.428568	0.920609
1094	H	0.957542	0.444394	0.91624
1095	H	0.959647	0.40905	0.894229
1096	H	0.996959	0.444452	0.91643
1097	N	0.944099	0.378198	0.969679
1098	C	0.935193	0.360606	0.676013
1099	C	0.822606	0.083311	0.917291
1100	C	0.808726	0.079749	0.963503
1101	H	0.803512	0.063154	0.89584
1102	H	0.845707	0.081315	0.916534
1103	H	0.828625	0.108081	0.903338
1104	N	0.779601	0.081456	0.967801
1105	C	0.764032	0.080719	0.674141
1106	C	0.780769	0.07973	0.714252
1107	C	0.769468	0.082893	0.760038
1108	H	0.770162	0.107292	0.763542
1109	H	0.785926	0.081553	0.786033
1110	H	0.743388	0.062137	0.765782
1111	N	0.811234	0.080591	0.710063
1112	C	0.825997	0.079872	0.003637
1113	C	0.929816	0.242746	0.917352
1114	C	0.933267	0.232307	0.96354
1115	H	0.950034	0.243867	0.895955
1116	H	0.931814	0.267834	0.916673
1117	H	0.905069	0.224035	0.903277
1118	N	0.931628	0.201513	0.96771
1119	C	0.932386	0.18668	0.67402
1120	C	0.933399	0.20431	0.714228
1121	C	0.930308	0.189818	0.759978
1122	H	0.905909	0.16611	0.763502
1123	H	0.931675	0.207583	0.78603
1124	H	0.95109	0.184509	0.765617
1125	N	0.932494	0.233883	0.710137
1126	C	0.933128	0.249373	0.003773
1127	C	0.770389	0.190493	0.917193
1128	C	0.780762	0.204371	0.963395
1129	H	0.769249	0.209565	0.895783
1130	H	0.745314	0.16738	0.916477
1131	H	0.789157	0.184512	0.903165
1132	N	0.811564	0.233518	0.967629
1133	C	0.826288	0.248996	0.674023
1134	C	0.808652	0.232326	0.714178
1135	C	0.823127	0.243542	0.759968
1136	H	0.846823	0.242805	0.763424
1137	H	0.805322	0.227071	0.785942
1138	H	0.82847	0.269613	0.765789
1139	N	0.779086	0.201853	0.709907
1140	C	0.763553	0.187058	0.003492
1141	C	0.743446	0.596338	0.006715
1142	C	0.760838	0.632374	0.005036
1143	C	0.743224	0.650839	0.004942
1144	C	0.707054	0.632464	0.006222
1145	H	0.694036	0.645626	0.006168
1146	H	0.787111	0.645569	0.004232
1147	C	0.916774	0.650478	0.006631
1148	C	0.880718	0.631832	0.004992
1149	C	0.862244	0.59577	0.004958
1150	C	0.880623	0.577983	0.006276
1151	H	0.867452	0.551813	0.006286
1152	H	0.867513	0.6449	0.004202
1153	C	0.86252	0.769569	0.006621
1154	C	0.881171	0.752165	0.005026
1155	C	0.917253	0.769748	0.004965
1156	C	0.935049	0.805902	0.006266
1157	H	0.961233	0.818895	0.0063
1158	H	0.868094	0.725903	0.004283
1159	C	0.580438	0.541798	0.339848
1160	C	0.599974	0.551749	0.299463
1161	C	0.584382	0.544041	0.25396
1162	H	0.56858	0.516434	0.249564
1163	H	0.603912	0.55391	0.227587
1164	H	0.568456	0.555743	0.249799
1165	N	0.634765	0.569209	0.303047
1166	C	0.971108	0.541837	0.339858
1167	C	0.961253	0.551514	0.29947
1168	C	0.968975	0.543644	0.253966
1169	H	0.996594	0.555392	0.249615
1170	H	0.959167	0.553365	0.227593
1171	H	0.957211	0.516027	0.249762
1172	N	0.943865	0.568915	0.30305
1173	C	0.97108	0.932497	0.339831
1174	C	0.961455	0.912974	0.29944
1175	C	0.96933	0.928567	0.253941
1176	H	0.95754	0.944393	0.249572
1177	H	0.959645	0.909049	0.227563
1178	H	0.996959	0.944454	0.249761
1179	N	0.944098	0.878198	0.303013
1180	C	0.822605	0.583311	0.250622
1181	C	0.808726	0.57975	0.296835
1182	H	0.803511	0.563154	0.229172
1183	H	0.845706	0.581315	0.249866
1184	H	0.828624	0.608081	0.236671
1185	N	0.779601	0.581455	0.301132
1186	C	0.825996	0.579873	0.336971
1187	C	0.929815	0.742747	0.250685
1188	C	0.933266	0.732308	0.296874
1189	H	0.950033	0.743866	0.229289
1190	H	0.931812	0.767833	0.250004
1191	H	0.905067	0.724034	0.23661
1192	N	0.931629	0.701512	0.301043
1193	C	0.933127	0.749374	0.337104
1194	C	0.770389	0.690493	0.250526
1195	C	0.780761	0.704371	0.296726
1196	H	0.769251	0.709566	0.229116
1197	H	0.745315	0.667381	0.24981
1198	H	0.789157	0.684513	0.236497
1199	N	0.811563	0.73352	0.30096
1200	C	0.763553	0.687057	0.336823
1201	C	0.543999	0.523582	0.341101
1202	C	0.525537	0.541341	0.341145
1203	C	0.989314	0.523605	0.341108
1204	C	0.971552	0.987396	0.341135
1205	C	0.989303	0.968924	0.341091
1206	C	0.525529	0.987376	0.341149
1207	H	0.94535	0.974309	0.340645
1208	H	0.538628	0.974275	0.340639
1209	H	0.538639	0.567529	0.340662
1210	C	0.743446	0.596338	0.340047
1211	C	0.760838	0.632374	0.338368
1212	C	0.743224	0.650839	0.338274
1213	C	0.707054	0.632464	0.339554
1214	C	0.688756	0.596169	0.340997
1215	C	0.707279	0.578372	0.341365
1216	H	0.694036	0.645626	0.339503
1217	H	0.69443	0.552222	0.342733
1218	H	0.787111	0.645569	0.337564
1219	C	0.916774	0.650478	0.339966
1220	C	0.880718	0.631832	0.338324
1221	C	0.862244	0.59577	0.338294
1222	C	0.880623	0.577983	0.339608
1223	C	0.916934	0.595975	0.340993
1224	C	0.934745	0.632282	0.341297
1225	H	0.867452	0.551813	0.339618
1226	H	0.960908	0.64558	0.342639
1227	H	0.867513	0.6449	0.337534
1228	C	0.86252	0.769569	0.339953
1229	C	0.881171	0.752165	0.338358
1230	C	0.917253	0.769748	0.338297
1231	C	0.935049	0.805902	0.339598
1232	C	0.917055	0.824216	0.340946
1233	C	0.880729	0.80572	0.34124
1234	H	0.961233	0.818895	0.339635
1235	H	0.867427	0.818581	0.342558
1236	H	0.868094	0.725903	0.337614
1237	C	0.647214	0.575058	0.429363
1238	C	0.632807	0.567925	0.383158
1239	H	0.638324	0.590189	0.44752
1240	H	0.675104	0.589092	0.429624
1241	H	0.638509	0.550987	0.447294
1242	N	0.598017	0.550489	0.379512
1243	C	0.580438	0.541798	0.673182
1244	C	0.599974	0.551749	0.632798
1245	C	0.584382	0.544041	0.587295
1246	H	0.56858	0.516434	0.5829
1247	H	0.603912	0.55391	0.560922
1248	H	0.568456	0.555743	0.583133
1249	N	0.634765	0.569209	0.636379
1250	C	0.652354	0.577894	0.34272
1251	C	0.937941	0.575445	0.429367
1252	C	0.945077	0.568171	0.383161
1253	H	0.922725	0.551432	0.447486
1254	H	0.92398	0.589371	0.429624
1255	H	0.96202	0.590728	0.447337
1256	N	0.962438	0.550744	0.379519
1257	C	0.971108	0.541837	0.673189
1258	C	0.961253	0.551514	0.632805
1259	C	0.968975	0.543644	0.587298
1260	H	0.996594	0.555392	0.582947
1261	H	0.959167	0.553365	0.560925
1262	H	0.957211	0.516027	0.583096
1263	N	0.943865	0.568915	0.636386
1264	C	0.935192	0.57783	0.342723
1265	C	0.937535	0.865734	0.429323
1266	C	0.944807	0.880143	0.383121
1267	H	0.961558	0.874575	0.447462
1268	H	0.923651	0.837858	0.429576
1269	H	0.922198	0.874475	0.447277
1270	N	0.962187	0.914917	0.379489
1271	C	0.97108	0.932497	0.673165
1272	C	0.961455	0.912974	0.632774
1273	C	0.96933	0.928567	0.587275
1274	H	0.95754	0.944393	0.582906
1275	H	0.959645	0.909049	0.560898
1276	H	0.996959	0.944454	0.583096
1277	N	0.944098	0.878198	0.636345
1278	C	0.935193	0.860608	0.342679
1279	C	0.822605	0.583311	0.583957
1280	C	0.808726	0.57975	0.630169
1281	H	0.803511	0.563154	0.562506
1282	H	0.845706	0.581315	0.5832
1283	H	0.828624	0.608081	0.570004
1284	N	0.779601	0.581455	0.634467
1285	C	0.764031	0.580719	0.340807
1286	C	0.780768	0.57973	0.380918
1287	C	0.769467	0.582892	0.426704
1288	H	0.770162	0.607293	0.430208
1289	H	0.785924	0.581552	0.452699
1290	H	0.743389	0.562137	0.432448
1291	N	0.811233	0.580591	0.376729
1292	C	0.825996	0.579873	0.670307
1293	C	0.929815	0.742747	0.584018
1294	C	0.933266	0.732308	0.630206
1295	H	0.950033	0.743866	0.562621
1296	H	0.931812	0.767833	0.583339
1297	H	0.905067	0.724034	0.569943
1298	N	0.931629	0.701512	0.634376
1299	C	0.932385	0.686681	0.340686
1300	C	0.9334	0.704309	0.380894
1301	C	0.930307	0.689818	0.426644
1302	H	0.905908	0.66611	0.430167
1303	H	0.931673	0.707582	0.452696
1304	H	0.95109	0.68451	0.432282
1305	N	0.932492	0.733883	0.376803
1306	C	0.933127	0.749374	0.670439
1307	C	0.770389	0.690493	0.583859
1308	C	0.780761	0.704371	0.630061
1309	H	0.769251	0.709566	0.562449
1310	H	0.745315	0.667381	0.583143
1311	H	0.789157	0.684513	0.569831
1312	N	0.811563	0.73352	0.634295
1313	C	0.826287	0.748995	0.340689
1314	C	0.808651	0.732326	0.380844
1315	C	0.823126	0.743542	0.426634
1316	H	0.846824	0.742805	0.430093
1317	H	0.805321	0.727072	0.452608
1318	H	0.82847	0.769615	0.432455
1319	N	0.779087	0.701852	0.376573
1320	C	0.763553	0.687057	0.670158
1321	C	0.543999	0.523582	0.674435
1322	C	0.525537	0.541341	0.674479
1323	C	0.989314	0.523605	0.674442
1324	C	0.971552	0.987396	0.674469
1325	C	0.989303	0.968924	0.674425
1326	C	0.525529	0.987376	0.674483
1327	H	0.94535	0.974309	0.673976
1328	H	0.538628	0.974275	0.673969
1329	H	0.538639	0.567529	0.673996
1330	C	0.743446	0.596338	0.673381
1331	C	0.760838	0.632374	0.671702
1332	C	0.743224	0.650839	0.671608
1333	C	0.707054	0.632464	0.672888
1334	C	0.688756	0.596169	0.674331
1335	C	0.707279	0.578372	0.674699
1336	H	0.694036	0.645626	0.672834
1337	H	0.69443	0.552222	0.676067
1338	H	0.787111	0.645569	0.670898
1339	C	0.916774	0.650478	0.6733
1340	C	0.880718	0.631832	0.671658
1341	C	0.862244	0.59577	0.671624
1342	C	0.880623	0.577983	0.672942
1343	C	0.916934	0.595975	0.674327
1344	C	0.934745	0.632282	0.674631
1345	H	0.867452	0.551813	0.672952
1346	H	0.960908	0.64558	0.675973
1347	H	0.867513	0.6449	0.670868
1348	C	0.86252	0.769569	0.673287
1349	C	0.881171	0.752165	0.671692
1350	C	0.917253	0.769748	0.671631
1351	C	0.935049	0.805902	0.672932
1352	C	0.917055	0.824216	0.67428
1353	C	0.880729	0.80572	0.674574
1354	H	0.961233	0.818895	0.672966
1355	H	0.867427	0.818581	0.675892
1356	H	0.868094	0.725903	0.670949
1357	C	0.647214	0.575058	0.762697
1358	C	0.632807	0.567925	0.716492
1359	H	0.638324	0.590189	0.780854
1360	H	0.675104	0.589092	0.762958
1361	H	0.638509	0.550987	0.780628
1362	N	0.598017	0.550489	0.712846
1363	C	0.580438	0.541798	0.006516
1364	C	0.599974	0.551749	0.966132
1365	C	0.584382	0.544041	0.920626
1366	H	0.56858	0.516434	0.91623
1367	H	0.603912	0.55391	0.894256
1368	H	0.568456	0.555743	0.916467
1369	N	0.634765	0.569209	0.969713
1370	C	0.652354	0.577894	0.676054
1371	C	0.937941	0.575445	0.762701
1372	C	0.945077	0.568171	0.716495
1373	H	0.922725	0.551432	0.78082
1374	H	0.92398	0.589371	0.762958
1375	H	0.96202	0.590728	0.780668
1376	N	0.962438	0.550744	0.712853
1377	C	0.971108	0.541837	0.006523
1378	C	0.961253	0.551514	0.966139
1379	C	0.968975	0.543644	0.920633
1380	H	0.996594	0.555392	0.916281
1381	H	0.959167	0.553365	0.894259
1382	H	0.957211	0.516027	0.91643
1383	N	0.943865	0.568915	0.969717
1384	C	0.935192	0.57783	0.676057
1385	C	0.937535	0.865734	0.762657
1386	C	0.944807	0.880143	0.716455
1387	H	0.961558	0.874575	0.780796
1388	H	0.923651	0.837858	0.76291
1389	H	0.922198	0.874475	0.780611
1390	N	0.962187	0.914917	0.712823
1391	C	0.97108	0.932497	0.006496
1392	C	0.961455	0.912974	0.966108
1393	C	0.96933	0.928567	0.920609
1394	H	0.95754	0.944393	0.91624
1395	H	0.959645	0.909049	0.894229
1396	H	0.996959	0.944454	0.91643
1397	N	0.944098	0.878198	0.969679
1398	C	0.935193	0.860608	0.676013
1399	C	0.822605	0.583311	0.917291
1400	C	0.808726	0.57975	0.963503
1401	H	0.803511	0.563154	0.89584
1402	H	0.845706	0.581315	0.916534
1403	H	0.828624	0.608081	0.903338
1404	N	0.779601	0.581455	0.967801
1405	C	0.764031	0.580719	0.674141
1406	C	0.780768	0.57973	0.714252
1407	C	0.769467	0.582892	0.760038
1408	H	0.770162	0.607293	0.763542
1409	H	0.785924	0.581552	0.786033
1410	H	0.743389	0.562137	0.765782
1411	N	0.811233	0.580591	0.710063
1412	C	0.825996	0.579873	0.003637
1413	C	0.929815	0.742747	0.917352
1414	C	0.933266	0.732308	0.96354
1415	H	0.950033	0.743866	0.895955
1416	H	0.931812	0.767833	0.916673
1417	H	0.905067	0.724034	0.903277
1418	N	0.931629	0.701512	0.96771
1419	C	0.932385	0.686681	0.67402
1420	C	0.9334	0.704309	0.714228
1421	C	0.930307	0.689818	0.759978
1422	H	0.905908	0.66611	0.763502
1423	H	0.931673	0.707582	0.78603
1424	H	0.95109	0.68451	0.765617
1425	N	0.932492	0.733883	0.710137
1426	C	0.933127	0.749374	0.003773
1427	C	0.770389	0.690493	0.917193
1428	C	0.780761	0.704371	0.963395
1429	H	0.769251	0.709566	0.895783
1430	H	0.745315	0.667381	0.916477
1431	H	0.789157	0.684513	0.903165
1432	N	0.811563	0.73352	0.967629
1433	C	0.826287	0.748995	0.674023
1434	C	0.808651	0.732326	0.714178
1435	C	0.823126	0.743542	0.759968
1436	H	0.846824	0.742805	0.763424
1437	H	0.805321	0.727072	0.785942
1438	H	0.82847	0.769615	0.765789
1439	N	0.779087	0.701852	0.709907
1440	C	0.763553	0.687057	0.003492
