data_C504H288N288_2018-02-15_10:37:43
#******************************************
#
# CIF file created by Zeo++
# Zeo++ is an open source package to
# analyze microporous materials
#
#*******************************************

_cell_length_a		44.4288   
_cell_length_b		44.4334   
_cell_length_c		29.5244   
_cell_angle_alpha		90   
_cell_angle_beta		90   
_cell_angle_gamma		120.01   

_symmetry_space_group_name_H-M		'P1'
_symmetry_Int_Tables_number		1
_symmetry_cell_setting		Monoclinic

loop_
_symmetry_equiv_pos_as_xyz
'+x,+y,+z'

loop_
_atom_site_label
_atom_site_type_symbol
_atom_site_fract_x
_atom_site_fract_y
_atom_site_fract_z
1	N	0.027061	0.04196	0.009216
2	C	0.045036	0.024563	0.009472
3	N	0.027071	0.489186	0.009215
4	C	0.154507	0.079439	0.0089
5	N	0.136399	0.0706	0.302689
6	C	0.100985	0.052828	0.299967
7	C	0.081722	0.042921	0.340982
8	N	0.099845	0.051748	0.047237
9	C	0.135161	0.069429	0.049451
10	H	0.147152	0.075254	0.080342
11	C	0.084491	0.044731	0.254737
12	H	0.103958	0.054619	0.22782
13	H	0.068249	0.056591	0.251034
14	H	0.068374	0.016641	0.250664
15	N	0.027061	0.04196	0.34255
16	C	0.045036	0.024563	0.342804
17	N	0.027071	0.489186	0.342547
18	C	0.154507	0.079439	0.342232
19	N	0.136399	0.0706	0.636022
20	C	0.100985	0.052828	0.633303
21	C	0.081722	0.042921	0.674316
22	N	0.099845	0.051748	0.38057
23	C	0.135161	0.069429	0.382785
24	H	0.147152	0.075254	0.413674
25	C	0.084491	0.044731	0.588072
26	H	0.103958	0.054619	0.561152
27	H	0.068249	0.056591	0.584367
28	H	0.068374	0.016641	0.583998
29	N	0.027061	0.04196	0.675884
30	C	0.045036	0.024563	0.676138
31	N	0.027071	0.489186	0.675881
32	C	0.154507	0.079439	0.675566
33	N	0.136399	0.0706	0.969356
34	C	0.100985	0.052828	0.966633
35	C	0.081722	0.042921	0.00765
36	N	0.099845	0.051748	0.713904
37	C	0.135161	0.069429	0.716119
38	H	0.147152	0.075254	0.747008
39	C	0.084491	0.044731	0.921403
40	H	0.103958	0.054619	0.894486
41	H	0.068249	0.056591	0.917701
42	H	0.068374	0.016641	0.917332
43	N	0.027061	0.541959	0.009216
44	C	0.045037	0.524564	0.009472
45	N	0.027073	0.989187	0.009215
46	C	0.154507	0.579439	0.0089
47	N	0.136399	0.5706	0.302689
48	C	0.100984	0.552828	0.299967
49	C	0.081722	0.54292	0.340982
50	N	0.099844	0.551747	0.047237
51	C	0.135162	0.56943	0.049451
52	H	0.147153	0.575254	0.080342
53	C	0.08449	0.544729	0.254737
54	H	0.103958	0.554618	0.22782
55	H	0.06825	0.556591	0.251034
56	H	0.068375	0.516642	0.250664
57	N	0.027061	0.541959	0.34255
58	C	0.045037	0.524564	0.342804
59	N	0.027073	0.989187	0.34255
60	C	0.154507	0.579439	0.342232
61	N	0.136399	0.5706	0.636022
62	C	0.100984	0.552828	0.633303
63	C	0.081722	0.54292	0.674316
64	N	0.099844	0.551747	0.38057
65	C	0.135162	0.56943	0.382785
66	H	0.147153	0.575254	0.413674
67	C	0.08449	0.544729	0.588072
68	H	0.103958	0.554618	0.561152
69	H	0.06825	0.556591	0.584367
70	H	0.068375	0.516642	0.583998
71	N	0.027061	0.541959	0.675884
72	C	0.045037	0.524564	0.676138
73	N	0.027073	0.989187	0.675881
74	C	0.154507	0.579439	0.675566
75	N	0.136399	0.5706	0.969356
76	C	0.100984	0.552828	0.966633
77	C	0.081722	0.54292	0.00765
78	N	0.099844	0.551747	0.713904
79	C	0.135162	0.56943	0.716119
80	H	0.147153	0.575254	0.747008
81	C	0.08449	0.544729	0.921403
82	H	0.103958	0.554618	0.894486
83	H	0.06825	0.556591	0.917701
84	H	0.068375	0.516642	0.917332
85	C	0.244341	0.151216	0.00637
86	N	0.20896	0.133345	0.007271
87	C	0.191155	0.097841	0.008299
88	N	0.209115	0.080296	0.008669
89	C	0.244493	0.097953	0.00765
90	N	0.261385	0.133102	0.006719
91	C	0.282488	0.081981	0.049601
92	C	0.265889	0.082946	0.008957
93	N	0.282182	0.084119	0.302733
94	C	0.270388	0.084983	0.095173
95	H	0.286853	0.083665	0.121657
96	H	0.243867	0.063762	0.100444
97	H	0.270905	0.109703	0.098463
98	C	0.265563	0.187628	0.339749
99	N	0.281535	0.202647	0.0461
100	C	0.282832	0.204714	0.299565
101	H	0.274762	0.192991	0.268655
102	C	0.244341	0.151216	0.339702
103	N	0.20896	0.133345	0.340606
104	C	0.191155	0.097841	0.341632
105	N	0.209115	0.080296	0.342001
106	C	0.244493	0.097953	0.340982
107	N	0.261385	0.133102	0.340054
108	C	0.282488	0.081981	0.382934
109	C	0.265889	0.082946	0.342289
110	N	0.282182	0.084119	0.636066
111	C	0.270388	0.084983	0.428506
112	H	0.286853	0.083665	0.454989
113	H	0.243867	0.063762	0.433776
114	H	0.270905	0.109703	0.431798
115	C	0.265563	0.187628	0.673083
116	N	0.281535	0.202647	0.379435
117	C	0.282832	0.204714	0.6329
118	H	0.274762	0.192991	0.60199
119	C	0.244341	0.151216	0.673036
120	N	0.20896	0.133345	0.67394
121	C	0.191155	0.097841	0.674966
122	N	0.209115	0.080296	0.675336
123	C	0.244493	0.097953	0.674316
124	N	0.261385	0.133102	0.673388
125	C	0.282488	0.081981	0.716268
126	C	0.265889	0.082946	0.675623
127	N	0.282182	0.084119	0.9694
128	C	0.270388	0.084983	0.76184
129	H	0.286853	0.083665	0.788323
130	H	0.243867	0.063762	0.76711
131	H	0.270905	0.109703	0.765129
132	C	0.265563	0.187628	0.006414
133	N	0.281535	0.202647	0.712769
134	C	0.282832	0.204714	0.966234
135	H	0.274762	0.192991	0.935324
136	C	0.24434	0.651215	0.00637
137	N	0.20896	0.633344	0.007271
138	C	0.191154	0.59784	0.008299
139	N	0.209115	0.580296	0.008669
140	C	0.244492	0.597951	0.00765
141	N	0.261385	0.633103	0.006719
142	C	0.282488	0.581981	0.049601
143	C	0.26589	0.582947	0.008957
144	N	0.282182	0.58412	0.302733
145	C	0.270389	0.584982	0.095173
146	H	0.286852	0.583665	0.121657
147	H	0.243868	0.563762	0.100444
148	H	0.270904	0.609701	0.098463
149	C	0.265563	0.687627	0.339749
150	N	0.281534	0.702646	0.0461
151	C	0.282832	0.704715	0.299565
152	H	0.274762	0.692991	0.268655
153	C	0.24434	0.651215	0.339702
154	N	0.20896	0.633344	0.340606
155	C	0.191154	0.59784	0.341632
156	N	0.209115	0.580296	0.342001
157	C	0.244492	0.597951	0.340982
158	N	0.261385	0.633103	0.340054
159	C	0.282488	0.581981	0.382934
160	C	0.26589	0.582947	0.342289
161	N	0.282182	0.58412	0.636066
162	C	0.270389	0.584982	0.428506
163	H	0.286852	0.583665	0.454989
164	H	0.243868	0.563762	0.433776
165	H	0.270904	0.609701	0.431798
166	C	0.265563	0.687627	0.673083
167	N	0.281534	0.702646	0.379435
168	C	0.282832	0.704715	0.6329
169	H	0.274762	0.692991	0.60199
170	C	0.24434	0.651215	0.673036
171	N	0.20896	0.633344	0.67394
172	C	0.191154	0.59784	0.674966
173	N	0.209115	0.580296	0.675336
174	C	0.244492	0.597951	0.674316
175	N	0.261385	0.633103	0.673388
176	C	0.282488	0.581981	0.716268
177	C	0.26589	0.582947	0.675623
178	N	0.282182	0.58412	0.9694
179	C	0.270389	0.584982	0.76184
180	H	0.286852	0.583665	0.788323
181	H	0.243868	0.563762	0.76711
182	H	0.270904	0.609701	0.765129
183	C	0.265563	0.687627	0.006414
184	N	0.281534	0.702646	0.712769
185	C	0.282832	0.704715	0.966234
186	H	0.274762	0.692991	0.935324
187	C	0.328646	0.081916	0.339908
188	N	0.313488	0.082828	0.046148
189	C	0.311543	0.081968	0.299663
190	H	0.323429	0.085949	0.268828
191	C	0.311712	0.233629	0.049654
192	C	0.329239	0.250277	0.009023
193	N	0.314275	0.234168	0.302661
194	C	0.326772	0.245683	0.095257
195	H	0.308976	0.229167	0.121697
196	H	0.332032	0.272181	0.100585
197	H	0.350998	0.245206	0.098555
198	C	0.328646	0.081916	0.673242
199	N	0.313488	0.082828	0.379482
200	C	0.311543	0.081968	0.632998
201	H	0.323429	0.085949	0.602162
202	C	0.311712	0.233629	0.382988
203	C	0.329239	0.250277	0.342357
204	N	0.314275	0.234168	0.635995
205	C	0.326772	0.245683	0.428591
206	H	0.308976	0.229167	0.45503
207	H	0.332032	0.272181	0.433919
208	H	0.350998	0.245206	0.43189
209	C	0.328646	0.081916	0.006576
210	N	0.313488	0.082828	0.712816
211	C	0.311543	0.081968	0.966328
212	H	0.323429	0.085949	0.935496
213	C	0.311712	0.233629	0.716322
214	C	0.329239	0.250277	0.675691
215	N	0.314275	0.234168	0.969329
216	C	0.326772	0.245683	0.761925
217	H	0.308976	0.229167	0.788364
218	H	0.332032	0.272181	0.767253
219	H	0.350998	0.245206	0.76522
220	C	0.328646	0.581916	0.339908
221	N	0.313488	0.582828	0.046148
222	C	0.311543	0.581968	0.299663
223	H	0.323431	0.585949	0.268828
224	C	0.311713	0.733629	0.049654
225	C	0.329239	0.750275	0.009023
226	N	0.314275	0.734167	0.302661
227	C	0.326773	0.745683	0.095257
228	H	0.308975	0.729166	0.121697
229	H	0.332031	0.77218	0.100585
230	H	0.350998	0.745205	0.098555
231	C	0.328646	0.581916	0.673242
232	N	0.313488	0.582828	0.379482
233	C	0.311543	0.581968	0.632998
234	H	0.323431	0.585949	0.602162
235	C	0.311713	0.733629	0.382988
236	C	0.329239	0.750275	0.342357
237	N	0.314275	0.734167	0.635995
238	C	0.326773	0.745683	0.428591
239	H	0.308975	0.729166	0.45503
240	H	0.332031	0.77218	0.433919
241	H	0.350998	0.745205	0.43189
242	C	0.328646	0.581916	0.006576
243	N	0.313488	0.582828	0.712816
244	C	0.311543	0.581968	0.966328
245	H	0.323431	0.585949	0.935496
246	C	0.311713	0.733629	0.716322
247	C	0.329239	0.750275	0.675691
248	N	0.314275	0.734167	0.969329
249	C	0.326773	0.745683	0.761925
250	H	0.308975	0.729166	0.788364
251	H	0.332031	0.77218	0.767253
252	H	0.350998	0.745205	0.76522
253	C	0.491692	0.471209	0.009479
254	N	0.474276	0.489166	0.00923
255	C	0.491683	0.02454	0.009479
256	C	0.36505	0.097139	0.006522
257	N	0.382947	0.079663	0.007386
258	C	0.418457	0.0974	0.008302
259	N	0.435983	0.13291	0.008569
260	C	0.418295	0.150595	0.007599
261	N	0.383142	0.1323	0.006766
262	C	0.419144	0.271981	0.0064
263	N	0.436611	0.307356	0.007213
264	C	0.418863	0.325107	0.008342
265	N	0.383352	0.307099	0.008799
266	C	0.365673	0.271724	0.007823
267	N	0.383978	0.254884	0.00679
268	C	0.43687	0.079174	0.008897
269	N	0.44573	0.069929	0.302687
270	C	0.46348	0.052272	0.299969
271	C	0.473335	0.04287	0.340989
272	N	0.464477	0.052133	0.047241
273	C	0.446814	0.069779	0.049452
274	H	0.440958	0.075913	0.080342
275	C	0.471591	0.043892	0.25474
276	H	0.461734	0.053496	0.227821
277	H	0.459708	0.015788	0.251011
278	H	0.499684	0.055854	0.250694
279	C	0.437077	0.36175	0.008923
280	N	0.44642	0.379852	0.302709
281	C	0.464065	0.415263	0.299982
282	C	0.473359	0.434527	0.340992
283	N	0.46399	0.41641	0.04725
284	C	0.446344	0.3811	0.04947
285	H	0.440135	0.369113	0.080362
286	C	0.472514	0.431749	0.254749
287	H	0.462968	0.412282	0.227836
288	H	0.500627	0.447995	0.251099
289	H	0.460542	0.447857	0.250618
290	C	0.434401	0.25084	0.339441
291	N	0.433248	0.234703	0.045749
292	C	0.434045	0.204531	0.049319
293	C	0.433252	0.187	0.008707
294	N	0.432339	0.202174	0.302419
295	C	0.434461	0.233667	0.299305
296	H	0.430805	0.241774	0.268432
297	C	0.430822	0.189436	0.094949
298	H	0.432071	0.20724	0.121353
299	H	0.451988	0.184095	0.100453
300	H	0.406061	0.165254	0.098134
301	C	0.491692	0.471209	0.342814
302	N	0.474276	0.489166	0.342564
303	C	0.491683	0.02454	0.342814
304	C	0.36505	0.097139	0.339858
305	N	0.382947	0.079663	0.340718
306	C	0.418457	0.0974	0.341636
307	N	0.435983	0.13291	0.341903
308	C	0.418295	0.150595	0.340931
309	N	0.383142	0.1323	0.340098
310	C	0.419144	0.271981	0.339732
311	N	0.436611	0.307356	0.340548
312	C	0.418863	0.325107	0.341676
313	N	0.383352	0.307099	0.342134
314	C	0.365673	0.271724	0.341155
315	N	0.383978	0.254884	0.340125
316	C	0.43687	0.079174	0.342232
317	N	0.44573	0.069929	0.636019
318	C	0.46348	0.052272	0.633303
319	C	0.473335	0.04287	0.674319
320	N	0.464477	0.052133	0.380576
321	C	0.446814	0.069779	0.382785
322	H	0.440958	0.075913	0.413674
323	C	0.471591	0.043892	0.588072
324	H	0.461734	0.053496	0.561156
325	H	0.459708	0.015788	0.584347
326	H	0.499684	0.055854	0.584028
327	C	0.437077	0.36175	0.342256
328	N	0.44642	0.379852	0.636043
329	C	0.464065	0.415263	0.633316
330	C	0.473359	0.434527	0.674326
331	N	0.46399	0.41641	0.380583
332	C	0.446344	0.3811	0.382802
333	H	0.440135	0.369113	0.413695
334	C	0.472514	0.431749	0.588082
335	H	0.462968	0.412282	0.561169
336	H	0.500627	0.447995	0.584431
337	H	0.460542	0.447857	0.58395
338	C	0.434401	0.25084	0.672775
339	N	0.433248	0.234703	0.379083
340	C	0.434045	0.204531	0.382653
341	C	0.433252	0.187	0.342039
342	N	0.432339	0.202174	0.635751
343	C	0.434461	0.233667	0.632639
344	H	0.430805	0.241774	0.601766
345	C	0.430822	0.189436	0.428283
346	H	0.432071	0.20724	0.454688
347	H	0.451988	0.184095	0.433786
348	H	0.406061	0.165254	0.431466
349	C	0.491692	0.471209	0.676145
350	N	0.474276	0.489166	0.675898
351	C	0.491683	0.02454	0.676145
352	C	0.36505	0.097139	0.673192
353	N	0.382947	0.079663	0.674052
354	C	0.418457	0.0974	0.67497
355	N	0.435983	0.13291	0.675237
356	C	0.418295	0.150595	0.674265
357	N	0.383142	0.1323	0.673432
358	C	0.419144	0.271981	0.673066
359	N	0.436611	0.307356	0.673879
360	C	0.418863	0.325107	0.67501
361	N	0.383352	0.307099	0.675468
362	C	0.365673	0.271724	0.674489
363	N	0.383978	0.254884	0.673459
364	C	0.43687	0.079174	0.675566
365	N	0.44573	0.069929	0.969353
366	C	0.46348	0.052272	0.966637
367	C	0.473335	0.04287	0.007654
368	N	0.464477	0.052133	0.713907
369	C	0.446814	0.069779	0.716119
370	H	0.440958	0.075913	0.747008
371	C	0.471591	0.043892	0.921406
372	H	0.461734	0.053496	0.89449
373	H	0.459708	0.015788	0.917677
374	H	0.499684	0.055854	0.917362
375	C	0.437077	0.36175	0.67559
376	N	0.44642	0.379852	0.969377
377	C	0.464065	0.415263	0.96665
378	C	0.473359	0.434527	0.00766
379	N	0.46399	0.41641	0.713917
380	C	0.446344	0.3811	0.716136
381	H	0.440135	0.369113	0.747029
382	C	0.472514	0.431749	0.921417
383	H	0.462968	0.412282	0.894503
384	H	0.500627	0.447995	0.917765
385	H	0.460542	0.447857	0.917284
386	C	0.434401	0.25084	0.006109
387	N	0.433248	0.234703	0.712417
388	C	0.434045	0.204531	0.715987
389	C	0.433252	0.187	0.675373
390	N	0.432339	0.202174	0.969086
391	C	0.434461	0.233667	0.965973
392	H	0.430805	0.241774	0.9351
393	C	0.430822	0.189436	0.761617
394	H	0.432071	0.20724	0.788022
395	H	0.451988	0.184095	0.767121
396	H	0.406061	0.165254	0.7648
397	C	0.491692	0.97121	0.009479
398	N	0.474276	0.989164	0.00923
399	C	0.491683	0.52454	0.009479
400	C	0.36505	0.597138	0.006522
401	N	0.382947	0.579662	0.007386
402	C	0.418457	0.5974	0.008302
403	N	0.435983	0.63291	0.008569
404	C	0.418295	0.650594	0.007599
405	N	0.383142	0.6323	0.006766
406	C	0.419144	0.771979	0.0064
407	N	0.436611	0.807357	0.007213
408	C	0.418864	0.825108	0.008342
409	N	0.383354	0.8071	0.008799
410	C	0.365672	0.771722	0.007823
411	N	0.383977	0.754883	0.00679
412	C	0.43687	0.579174	0.008897
413	N	0.44573	0.569929	0.302687
414	C	0.46348	0.552272	0.299969
415	C	0.473335	0.542871	0.340989
416	N	0.464477	0.552131	0.047241
417	C	0.446815	0.569778	0.049452
418	H	0.440958	0.575912	0.080342
419	C	0.471593	0.543892	0.25474
420	H	0.461734	0.553496	0.227821
421	H	0.459708	0.515787	0.251011
422	H	0.499685	0.555853	0.250694
423	C	0.437079	0.861751	0.008923
424	N	0.44642	0.879853	0.302709
425	C	0.464064	0.915262	0.299982
426	C	0.47336	0.934528	0.340992
427	N	0.463992	0.91641	0.04725
428	C	0.446343	0.881098	0.04947
429	H	0.440134	0.869111	0.080362
430	C	0.472515	0.93175	0.254749
431	H	0.462968	0.912283	0.227836
432	H	0.500627	0.947996	0.251099
433	H	0.460542	0.947858	0.250618
434	C	0.434402	0.750839	0.339441
435	N	0.433247	0.734702	0.045749
436	C	0.434044	0.704531	0.049319
437	C	0.433253	0.687	0.008707
438	N	0.432339	0.702173	0.302419
439	C	0.43446	0.733665	0.299305
440	H	0.430805	0.741774	0.268432
441	C	0.430822	0.689436	0.094949
442	H	0.432072	0.707241	0.121353
443	H	0.451989	0.684095	0.100453
444	H	0.406061	0.665255	0.098134
445	C	0.491692	0.97121	0.342814
446	N	0.474276	0.989164	0.342564
447	C	0.491683	0.52454	0.342814
448	C	0.36505	0.597138	0.339858
449	N	0.382947	0.579662	0.340718
450	C	0.418457	0.5974	0.341636
451	N	0.435983	0.63291	0.341903
452	C	0.418295	0.650594	0.340931
453	N	0.383142	0.6323	0.340098
454	C	0.419144	0.771979	0.339732
455	N	0.436611	0.807357	0.340548
456	C	0.418864	0.825108	0.341676
457	N	0.383354	0.8071	0.342134
458	C	0.365672	0.771722	0.341155
459	N	0.383977	0.754883	0.340125
460	C	0.43687	0.579174	0.342232
461	N	0.44573	0.569929	0.636019
462	C	0.46348	0.552272	0.633303
463	C	0.473335	0.542871	0.674319
464	N	0.464477	0.552131	0.380576
465	C	0.446815	0.569778	0.382785
466	H	0.440958	0.575912	0.413674
467	C	0.471593	0.543892	0.588072
468	H	0.461734	0.553496	0.561156
469	H	0.459708	0.515787	0.584347
470	H	0.499685	0.555853	0.584028
471	C	0.437079	0.861751	0.342256
472	N	0.44642	0.879853	0.636043
473	C	0.464064	0.915262	0.633316
474	C	0.47336	0.934528	0.674326
475	N	0.463992	0.91641	0.380583
476	C	0.446343	0.881098	0.382805
477	H	0.440134	0.869111	0.413695
478	C	0.472515	0.93175	0.588082
479	H	0.462968	0.912283	0.561169
480	H	0.500627	0.947996	0.584431
481	H	0.460542	0.947858	0.58395
482	C	0.434402	0.750839	0.672775
483	N	0.433247	0.734702	0.379083
484	C	0.434044	0.704531	0.382653
485	C	0.433253	0.687	0.342039
486	N	0.432339	0.702173	0.635751
487	C	0.43446	0.733665	0.632639
488	H	0.430805	0.741774	0.601766
489	C	0.430822	0.689436	0.428283
490	H	0.432072	0.707241	0.454688
491	H	0.451989	0.684095	0.433786
492	H	0.406061	0.665255	0.431466
493	C	0.491692	0.97121	0.676145
494	N	0.474276	0.989164	0.675898
495	C	0.491683	0.52454	0.676145
496	C	0.36505	0.597138	0.673192
497	N	0.382947	0.579662	0.674052
498	C	0.418457	0.5974	0.67497
499	N	0.435983	0.63291	0.675237
500	C	0.418295	0.650594	0.674265
501	N	0.383142	0.6323	0.673432
502	C	0.419144	0.771979	0.673066
503	N	0.436611	0.807357	0.673879
504	C	0.418864	0.825108	0.67501
505	N	0.383354	0.8071	0.675468
506	C	0.365672	0.771722	0.674489
507	N	0.383977	0.754883	0.673459
508	C	0.43687	0.579174	0.675566
509	N	0.44573	0.569929	0.969353
510	C	0.46348	0.552272	0.966637
511	C	0.473335	0.542871	0.007654
512	N	0.464477	0.552131	0.713907
513	C	0.446815	0.569778	0.716119
514	H	0.440958	0.575912	0.747008
515	C	0.471593	0.543892	0.921406
516	H	0.461734	0.553496	0.89449
517	H	0.459708	0.515787	0.917677
518	H	0.499685	0.555853	0.917362
519	C	0.437079	0.861751	0.67559
520	N	0.44642	0.879853	0.969377
521	C	0.464064	0.915262	0.96665
522	C	0.47336	0.934528	0.00766
523	N	0.463992	0.91641	0.713917
524	C	0.446343	0.881098	0.716136
525	H	0.440134	0.869111	0.747029
526	C	0.472515	0.93175	0.921417
527	H	0.462968	0.912283	0.894503
528	H	0.500627	0.947996	0.917765
529	H	0.460542	0.947858	0.917284
530	C	0.434402	0.750839	0.006109
531	N	0.433247	0.734702	0.712417
532	C	0.434044	0.704531	0.715987
533	C	0.433253	0.687	0.675373
534	N	0.432339	0.702173	0.969086
535	C	0.43446	0.733665	0.965973
536	H	0.430805	0.741774	0.9351
537	C	0.430822	0.689436	0.761617
538	H	0.432072	0.707241	0.788022
539	H	0.451989	0.684095	0.767121
540	H	0.406061	0.665255	0.7648
541	C	0.991692	0.471209	0.009479
542	N	0.974276	0.489166	0.00923
543	C	0.991683	0.02454	0.009479
544	N	0.527061	0.04196	0.009216
545	C	0.545035	0.024563	0.009472
546	N	0.527072	0.489186	0.009215
547	C	0.74434	0.151216	0.00637
548	N	0.708961	0.133345	0.007271
549	C	0.691154	0.097841	0.008299
550	N	0.709115	0.080296	0.008669
551	C	0.744493	0.097953	0.00765
552	N	0.761384	0.133102	0.006719
553	C	0.86505	0.097139	0.006522
554	N	0.882947	0.079663	0.007386
555	C	0.918457	0.0974	0.008302
556	N	0.935983	0.13291	0.008569
557	C	0.918295	0.150595	0.007599
558	N	0.883142	0.1323	0.006766
559	C	0.919144	0.271981	0.0064
560	N	0.936611	0.307356	0.007213
561	C	0.918863	0.325107	0.008342
562	N	0.883352	0.307099	0.008799
563	C	0.865673	0.271724	0.007823
564	N	0.883978	0.254884	0.00679
565	C	0.654508	0.079439	0.0089
566	N	0.6364	0.0706	0.302689
567	C	0.600985	0.052828	0.299967
568	C	0.581723	0.042921	0.340982
569	N	0.599846	0.051748	0.047237
570	C	0.635161	0.069429	0.049451
571	H	0.647152	0.075254	0.080342
572	C	0.584492	0.044731	0.254737
573	H	0.603958	0.054619	0.22782
574	H	0.56825	0.056591	0.251034
575	H	0.568375	0.016641	0.250664
576	C	0.93687	0.079174	0.008897
577	N	0.94573	0.069929	0.302687
578	C	0.96348	0.052272	0.299969
579	C	0.973335	0.04287	0.340989
580	N	0.964477	0.052133	0.047241
581	C	0.946814	0.069779	0.049452
582	H	0.940958	0.075913	0.080342
583	C	0.971594	0.043892	0.25474
584	H	0.961734	0.053496	0.227821
585	H	0.95971	0.015788	0.251011
586	H	0.999684	0.055854	0.250694
587	C	0.937077	0.36175	0.008923
588	N	0.94642	0.379852	0.302709
589	C	0.964065	0.415263	0.299982
590	C	0.973359	0.434527	0.340992
591	N	0.96399	0.41641	0.04725
592	C	0.946344	0.3811	0.04947
593	H	0.940135	0.369113	0.080362
594	C	0.972514	0.431749	0.254749
595	H	0.962968	0.412282	0.227836
596	H	0.000627	0.447995	0.251099
597	H	0.960542	0.447857	0.250618
598	C	0.828646	0.081916	0.339908
599	N	0.813488	0.082828	0.046148
600	C	0.782488	0.081981	0.049601
601	C	0.765889	0.082946	0.008957
602	N	0.782182	0.084119	0.302733
603	C	0.811543	0.081968	0.299663
604	H	0.823431	0.085949	0.268828
605	C	0.770388	0.084983	0.095173
606	H	0.786853	0.083665	0.121657
607	H	0.743867	0.063762	0.100444
608	H	0.770905	0.109703	0.098463
609	C	0.934401	0.25084	0.339441
610	N	0.933248	0.234703	0.045749
611	C	0.934045	0.204531	0.049319
612	C	0.933252	0.187	0.008707
613	N	0.932339	0.202174	0.302419
614	C	0.934461	0.233667	0.299305
615	H	0.930805	0.241774	0.268432
616	C	0.930822	0.189436	0.094949
617	H	0.932071	0.20724	0.121353
618	H	0.951988	0.184095	0.100453
619	H	0.906061	0.165254	0.098134
620	C	0.765562	0.187628	0.339749
621	N	0.781534	0.202647	0.0461
622	C	0.811713	0.233629	0.049654
623	C	0.829239	0.250277	0.009023
624	N	0.814276	0.234168	0.302661
625	C	0.782831	0.204714	0.299565
626	H	0.774761	0.192991	0.268655
627	C	0.826773	0.245683	0.095257
628	H	0.808975	0.229167	0.121697
629	H	0.832032	0.272181	0.100585
630	H	0.850998	0.245206	0.098555
631	C	0.991692	0.471209	0.342814
632	N	0.974276	0.489166	0.342564
633	C	0.991683	0.02454	0.342814
634	N	0.527061	0.04196	0.34255
635	C	0.545035	0.024563	0.342804
636	N	0.527072	0.489186	0.342547
637	C	0.74434	0.151216	0.339702
638	N	0.708961	0.133345	0.340606
639	C	0.691154	0.097841	0.341632
640	N	0.709115	0.080296	0.342001
641	C	0.744493	0.097953	0.340982
642	N	0.761384	0.133102	0.340054
643	C	0.86505	0.097139	0.339858
644	N	0.882947	0.079663	0.340718
645	C	0.918457	0.0974	0.341636
646	N	0.935983	0.13291	0.341903
647	C	0.918295	0.150595	0.340931
648	N	0.883142	0.1323	0.340098
649	C	0.919144	0.271981	0.339732
650	N	0.936611	0.307356	0.340548
651	C	0.918863	0.325107	0.341676
652	N	0.883352	0.307099	0.342134
653	C	0.865673	0.271724	0.341155
654	N	0.883978	0.254884	0.340125
655	C	0.654508	0.079439	0.342232
656	N	0.6364	0.0706	0.636022
657	C	0.600985	0.052828	0.633303
658	C	0.581723	0.042921	0.674316
659	N	0.599846	0.051748	0.38057
660	C	0.635161	0.069429	0.382785
661	H	0.647152	0.075254	0.413674
662	C	0.584492	0.044731	0.588072
663	H	0.603958	0.054619	0.561152
664	H	0.56825	0.056591	0.584367
665	H	0.568375	0.016641	0.583998
666	C	0.93687	0.079174	0.342232
667	N	0.94573	0.069929	0.636019
668	C	0.96348	0.052272	0.633303
669	C	0.973335	0.04287	0.674319
670	N	0.964477	0.052133	0.380576
671	C	0.946814	0.069779	0.382785
672	H	0.940958	0.075913	0.413674
673	C	0.971594	0.043892	0.588072
674	H	0.961734	0.053496	0.561156
675	H	0.95971	0.015788	0.584347
676	H	0.999684	0.055854	0.584028
677	C	0.937077	0.36175	0.342256
678	N	0.94642	0.379852	0.636043
679	C	0.964065	0.415263	0.633316
680	C	0.973359	0.434527	0.674326
681	N	0.96399	0.41641	0.380583
682	C	0.946344	0.3811	0.382802
683	H	0.940135	0.369113	0.413695
684	C	0.972514	0.431749	0.588082
685	H	0.962968	0.412282	0.561169
686	H	0.000627	0.447995	0.584431
687	H	0.960542	0.447857	0.58395
688	C	0.828646	0.081916	0.673242
689	N	0.813488	0.082828	0.379482
690	C	0.782488	0.081981	0.382934
691	C	0.765889	0.082946	0.342289
692	N	0.782182	0.084119	0.636066
693	C	0.811543	0.081968	0.632998
694	H	0.823431	0.085949	0.602162
695	C	0.770388	0.084983	0.428506
696	H	0.786853	0.083665	0.454989
697	H	0.743867	0.063762	0.433776
698	H	0.770905	0.109703	0.431798
699	C	0.934401	0.25084	0.672775
700	N	0.933248	0.234703	0.379083
701	C	0.934045	0.204531	0.382653
702	C	0.933252	0.187	0.342039
703	N	0.932339	0.202174	0.635751
704	C	0.934461	0.233667	0.632639
705	H	0.930805	0.241774	0.601766
706	C	0.930822	0.189436	0.428283
707	H	0.932071	0.20724	0.454688
708	H	0.951988	0.184095	0.433786
709	H	0.906061	0.165254	0.431466
710	C	0.765562	0.187628	0.673083
711	N	0.781534	0.202647	0.379435
712	C	0.811713	0.233629	0.382988
713	C	0.829239	0.250277	0.342357
714	N	0.814276	0.234168	0.635995
715	C	0.782831	0.204714	0.6329
716	H	0.774761	0.192991	0.60199
717	C	0.826773	0.245683	0.428591
718	H	0.808975	0.229167	0.45503
719	H	0.832032	0.272181	0.433919
720	H	0.850998	0.245206	0.43189
721	C	0.991692	0.471209	0.676145
722	N	0.974276	0.489166	0.675898
723	C	0.991683	0.02454	0.676145
724	N	0.527061	0.04196	0.675884
725	C	0.545035	0.024563	0.676138
726	N	0.527072	0.489186	0.675881
727	C	0.74434	0.151216	0.673036
728	N	0.708961	0.133345	0.67394
729	C	0.691154	0.097841	0.674966
730	N	0.709115	0.080296	0.675336
731	C	0.744493	0.097953	0.674316
732	N	0.761384	0.133102	0.673388
733	C	0.86505	0.097139	0.673192
734	N	0.882947	0.079663	0.674052
735	C	0.918457	0.0974	0.67497
736	N	0.935983	0.13291	0.675237
737	C	0.918295	0.150595	0.674265
738	N	0.883142	0.1323	0.673432
739	C	0.919144	0.271981	0.673066
740	N	0.936611	0.307356	0.673879
741	C	0.918863	0.325107	0.67501
742	N	0.883352	0.307099	0.675468
743	C	0.865673	0.271724	0.674489
744	N	0.883978	0.254884	0.673459
745	C	0.654508	0.079439	0.675566
746	N	0.6364	0.0706	0.969356
747	C	0.600985	0.052828	0.966633
748	C	0.581723	0.042921	0.00765
749	N	0.599846	0.051748	0.713904
750	C	0.635161	0.069429	0.716119
751	H	0.647152	0.075254	0.747008
752	C	0.584492	0.044731	0.921403
753	H	0.603958	0.054619	0.894486
754	H	0.56825	0.056591	0.917701
755	H	0.568375	0.016641	0.917332
756	C	0.93687	0.079174	0.675566
757	N	0.94573	0.069929	0.969353
758	C	0.96348	0.052272	0.966637
759	C	0.973335	0.04287	0.007654
760	N	0.964477	0.052133	0.713907
761	C	0.946814	0.069779	0.716119
762	H	0.940958	0.075913	0.747008
763	C	0.971594	0.043892	0.921406
764	H	0.961734	0.053496	0.89449
765	H	0.95971	0.015788	0.917677
766	H	0.999684	0.055854	0.917362
767	C	0.937077	0.36175	0.67559
768	N	0.94642	0.379852	0.969377
769	C	0.964065	0.415263	0.96665
770	C	0.973359	0.434527	0.00766
771	N	0.96399	0.41641	0.713917
772	C	0.946344	0.3811	0.716136
773	H	0.940135	0.369113	0.747029
774	C	0.972514	0.431749	0.921417
775	H	0.962968	0.412282	0.894503
776	H	0.000627	0.447995	0.917765
777	H	0.960542	0.447857	0.917284
778	C	0.828646	0.081916	0.006576
779	N	0.813488	0.082828	0.712816
780	C	0.782488	0.081981	0.716268
781	C	0.765889	0.082946	0.675623
782	N	0.782182	0.084119	0.9694
783	C	0.811543	0.081968	0.966328
784	H	0.823431	0.085949	0.935496
785	C	0.770388	0.084983	0.76184
786	H	0.786853	0.083665	0.788323
787	H	0.743867	0.063762	0.76711
788	H	0.770905	0.109703	0.765129
789	C	0.934401	0.25084	0.006109
790	N	0.933248	0.234703	0.712417
791	C	0.934045	0.204531	0.715987
792	C	0.933252	0.187	0.675373
793	N	0.932339	0.202174	0.969086
794	C	0.934461	0.233667	0.965973
795	H	0.930805	0.241774	0.9351
796	C	0.930822	0.189436	0.761617
797	H	0.932071	0.20724	0.788022
798	H	0.951988	0.184095	0.767121
799	H	0.906061	0.165254	0.7648
800	C	0.765562	0.187628	0.006414
801	N	0.781534	0.202647	0.712769
802	C	0.811713	0.233629	0.716322
803	C	0.829239	0.250277	0.675691
804	N	0.814276	0.234168	0.969329
805	C	0.782831	0.204714	0.966234
806	H	0.774761	0.192991	0.935324
807	C	0.826773	0.245683	0.761925
808	H	0.808975	0.229167	0.788364
809	H	0.832032	0.272181	0.767253
810	H	0.850998	0.245206	0.76522
811	C	0.991692	0.97121	0.009479
812	N	0.974275	0.989164	0.00923
813	C	0.991683	0.52454	0.009479
814	N	0.527061	0.541959	0.009216
815	C	0.545036	0.524564	0.009472
816	N	0.527072	0.989187	0.009215
817	C	0.74434	0.651215	0.00637
818	N	0.708961	0.633344	0.007271
819	C	0.691154	0.59784	0.008299
820	N	0.709116	0.580296	0.008669
821	C	0.744493	0.597951	0.00765
822	N	0.761387	0.633103	0.006719
823	C	0.86505	0.597138	0.006522
824	N	0.882947	0.579662	0.007386
825	C	0.918458	0.5974	0.008302
826	N	0.935983	0.63291	0.008569
827	C	0.918294	0.650594	0.007599
828	N	0.883142	0.6323	0.006766
829	C	0.919143	0.771979	0.0064
830	N	0.936611	0.807357	0.007213
831	C	0.918864	0.825108	0.008342
832	N	0.883353	0.8071	0.008799
833	C	0.865673	0.771722	0.007823
834	N	0.883978	0.754883	0.00679
835	C	0.654508	0.579439	0.0089
836	N	0.636399	0.5706	0.302689
837	C	0.600984	0.552828	0.299967
838	C	0.581723	0.54292	0.340982
839	N	0.599845	0.551747	0.047237
840	C	0.635162	0.56943	0.049451
841	H	0.647153	0.575254	0.080342
842	C	0.584491	0.544729	0.254737
843	H	0.603958	0.554618	0.22782
844	H	0.56825	0.556591	0.251034
845	H	0.568376	0.516642	0.250664
846	C	0.93687	0.579174	0.008897
847	N	0.94573	0.569929	0.302687
848	C	0.96348	0.552272	0.299969
849	C	0.973336	0.542871	0.340989
850	N	0.964477	0.552131	0.047241
851	C	0.946814	0.569778	0.049452
852	H	0.940958	0.575912	0.080342
853	C	0.971594	0.543892	0.25474
854	H	0.961733	0.553496	0.227821
855	H	0.959709	0.515787	0.251011
856	H	0.999684	0.555853	0.250694
857	C	0.937078	0.861751	0.008923
858	N	0.94642	0.879853	0.302709
859	C	0.964064	0.915262	0.299982
860	C	0.973359	0.934528	0.340992
861	N	0.963993	0.91641	0.04725
862	C	0.946343	0.881098	0.04947
863	H	0.940134	0.869111	0.080362
864	C	0.972514	0.93175	0.254749
865	H	0.962968	0.912283	0.227836
866	H	0.000628	0.947996	0.251099
867	H	0.960542	0.947858	0.250618
868	C	0.828646	0.581916	0.339908
869	N	0.813488	0.582828	0.046148
870	C	0.782488	0.581981	0.049601
871	C	0.76589	0.582947	0.008957
872	N	0.782182	0.58412	0.302733
873	C	0.811543	0.581968	0.299663
874	H	0.823432	0.585949	0.268828
875	C	0.770388	0.584982	0.095173
876	H	0.786853	0.583665	0.121657
877	H	0.743867	0.563762	0.100444
878	H	0.770904	0.609701	0.098463
879	C	0.934403	0.750839	0.339441
880	N	0.933248	0.734702	0.045749
881	C	0.934044	0.704531	0.049319
882	C	0.933252	0.687	0.008707
883	N	0.932338	0.702173	0.302419
884	C	0.93446	0.733665	0.299305
885	H	0.930805	0.741774	0.268432
886	C	0.930822	0.689436	0.094949
887	H	0.932071	0.707241	0.121353
888	H	0.951989	0.684095	0.100453
889	H	0.906061	0.665255	0.098134
890	C	0.765562	0.687627	0.339749
891	N	0.781533	0.702646	0.0461
892	C	0.811713	0.733629	0.049654
893	C	0.829238	0.750275	0.009023
894	N	0.814276	0.734167	0.302661
895	C	0.782832	0.704715	0.299565
896	H	0.774761	0.692991	0.268655
897	C	0.826773	0.745683	0.095257
898	H	0.808977	0.729166	0.121697
899	H	0.832031	0.77218	0.100585
900	H	0.850997	0.745205	0.098555
901	C	0.991692	0.97121	0.342814
902	N	0.974275	0.989164	0.342564
903	C	0.991683	0.52454	0.342814
904	N	0.527061	0.541959	0.34255
905	C	0.545036	0.524564	0.342804
906	N	0.527072	0.989187	0.34255
907	C	0.74434	0.651215	0.339702
908	N	0.708961	0.633344	0.340606
909	C	0.691154	0.59784	0.341632
910	N	0.709116	0.580296	0.342001
911	C	0.744493	0.597951	0.340982
912	N	0.761387	0.633103	0.340054
913	C	0.86505	0.597138	0.339858
914	N	0.882947	0.579662	0.340718
915	C	0.918458	0.5974	0.341636
916	N	0.935983	0.63291	0.341903
917	C	0.918294	0.650594	0.340931
918	N	0.883142	0.6323	0.340098
919	C	0.919143	0.771979	0.339732
920	N	0.936611	0.807357	0.340548
921	C	0.918864	0.825108	0.341676
922	N	0.883353	0.8071	0.342134
923	C	0.865673	0.771722	0.341155
924	N	0.883978	0.754883	0.340125
925	C	0.654508	0.579439	0.342232
926	N	0.636399	0.5706	0.636022
927	C	0.600984	0.552828	0.633303
928	C	0.581723	0.54292	0.674316
929	N	0.599845	0.551747	0.38057
930	C	0.635162	0.56943	0.382785
931	H	0.647153	0.575254	0.413674
932	C	0.584491	0.544729	0.588072
933	H	0.603958	0.554618	0.561152
934	H	0.56825	0.556591	0.584367
935	H	0.568376	0.516642	0.583998
936	C	0.93687	0.579174	0.342232
937	N	0.94573	0.569929	0.636019
938	C	0.96348	0.552272	0.633303
939	C	0.973336	0.542871	0.674319
940	N	0.964477	0.552131	0.380576
941	C	0.946814	0.569778	0.382785
942	H	0.940958	0.575912	0.413674
943	C	0.971594	0.543892	0.588072
944	H	0.961733	0.553496	0.561156
945	H	0.959709	0.515787	0.584347
946	H	0.999684	0.555853	0.584028
947	C	0.937078	0.861751	0.342256
948	N	0.94642	0.879853	0.636043
949	C	0.964064	0.915262	0.633316
950	C	0.973359	0.934528	0.674326
951	N	0.963993	0.91641	0.380583
952	C	0.946343	0.881098	0.382805
953	H	0.940134	0.869111	0.413695
954	C	0.972514	0.93175	0.588082
955	H	0.962968	0.912283	0.561169
956	H	0.000628	0.947996	0.584431
957	H	0.960542	0.947858	0.58395
958	C	0.828646	0.581916	0.673242
959	N	0.813488	0.582828	0.379482
960	C	0.782488	0.581981	0.382934
961	C	0.76589	0.582947	0.342289
962	N	0.782182	0.58412	0.636066
963	C	0.811543	0.581968	0.632998
964	H	0.823432	0.585949	0.602162
965	C	0.770388	0.584982	0.428506
966	H	0.786853	0.583665	0.454989
967	H	0.743867	0.563762	0.433776
968	H	0.770904	0.609701	0.431798
969	C	0.934403	0.750839	0.672775
970	N	0.933248	0.734702	0.379083
971	C	0.934044	0.704531	0.382653
972	C	0.933252	0.687	0.342039
973	N	0.932338	0.702173	0.635751
974	C	0.93446	0.733665	0.632639
975	H	0.930805	0.741774	0.601766
976	C	0.930822	0.689436	0.428283
977	H	0.932071	0.707241	0.454688
978	H	0.951989	0.684095	0.433786
979	H	0.906061	0.665255	0.431466
980	C	0.765562	0.687627	0.673083
981	N	0.781533	0.702646	0.379435
982	C	0.811713	0.733629	0.382988
983	C	0.829238	0.750275	0.342357
984	N	0.814276	0.734167	0.635995
985	C	0.782832	0.704715	0.6329
986	H	0.774761	0.692991	0.60199
987	C	0.826773	0.745683	0.428591
988	H	0.808977	0.729166	0.45503
989	H	0.832031	0.77218	0.433919
990	H	0.850997	0.745205	0.43189
991	C	0.991692	0.97121	0.676145
992	N	0.974275	0.989164	0.675898
993	C	0.991683	0.52454	0.676145
994	N	0.527061	0.541959	0.675884
995	C	0.545036	0.524564	0.676138
996	N	0.527072	0.989187	0.675881
997	C	0.74434	0.651215	0.673036
998	N	0.708961	0.633344	0.67394
999	C	0.691154	0.59784	0.674966
1000	N	0.709116	0.580296	0.675336
1001	C	0.744493	0.597951	0.674316
1002	N	0.761387	0.633103	0.673388
1003	C	0.86505	0.597138	0.673192
1004	N	0.882947	0.579662	0.674052
1005	C	0.918458	0.5974	0.67497
1006	N	0.935983	0.63291	0.675237
1007	C	0.918294	0.650594	0.674265
1008	N	0.883142	0.6323	0.673432
1009	C	0.919143	0.771979	0.673066
1010	N	0.936611	0.807357	0.673879
1011	C	0.918864	0.825108	0.67501
1012	N	0.883353	0.8071	0.675468
1013	C	0.865673	0.771722	0.674489
1014	N	0.883978	0.754883	0.673459
1015	C	0.654508	0.579439	0.675566
1016	N	0.636399	0.5706	0.969356
1017	C	0.600984	0.552828	0.966633
1018	C	0.581723	0.54292	0.00765
1019	N	0.599845	0.551747	0.713904
1020	C	0.635162	0.56943	0.716119
1021	H	0.647153	0.575254	0.747008
1022	C	0.584491	0.544729	0.921403
1023	H	0.603958	0.554618	0.894486
1024	H	0.56825	0.556591	0.917701
1025	H	0.568376	0.516642	0.917332
1026	C	0.93687	0.579174	0.675566
1027	N	0.94573	0.569929	0.969353
1028	C	0.96348	0.552272	0.966637
1029	C	0.973336	0.542871	0.007654
1030	N	0.964477	0.552131	0.713907
1031	C	0.946814	0.569778	0.716119
1032	H	0.940958	0.575912	0.747008
1033	C	0.971594	0.543892	0.921406
1034	H	0.961733	0.553496	0.89449
1035	H	0.959709	0.515787	0.917677
1036	H	0.999684	0.555853	0.917362
1037	C	0.937078	0.861751	0.67559
1038	N	0.94642	0.879853	0.969377
1039	C	0.964064	0.915262	0.96665
1040	C	0.973359	0.934528	0.00766
1041	N	0.963993	0.91641	0.713917
1042	C	0.946343	0.881098	0.716136
1043	H	0.940134	0.869111	0.747029
1044	C	0.972514	0.93175	0.921417
1045	H	0.962968	0.912283	0.894503
1046	H	0.000628	0.947996	0.917765
1047	H	0.960542	0.947858	0.917284
1048	C	0.828646	0.581916	0.006576
1049	N	0.813488	0.582828	0.712816
1050	C	0.782488	0.581981	0.716268
1051	C	0.76589	0.582947	0.675623
1052	N	0.782182	0.58412	0.9694
1053	C	0.811543	0.581968	0.966328
1054	H	0.823432	0.585949	0.935496
1055	C	0.770388	0.584982	0.76184
1056	H	0.786853	0.583665	0.788323
1057	H	0.743867	0.563762	0.76711
1058	H	0.770904	0.609701	0.765129
1059	C	0.934403	0.750839	0.006109
1060	N	0.933248	0.734702	0.712417
1061	C	0.934044	0.704531	0.715987
1062	C	0.933252	0.687	0.675373
1063	N	0.932338	0.702173	0.969086
1064	C	0.93446	0.733665	0.965973
1065	H	0.930805	0.741774	0.9351
1066	C	0.930822	0.689436	0.761617
1067	H	0.932071	0.707241	0.788022
1068	H	0.951989	0.684095	0.767121
1069	H	0.906061	0.665255	0.7648
1070	C	0.765562	0.687627	0.006414
1071	N	0.781533	0.702646	0.712769
1072	C	0.811713	0.733629	0.716322
1073	C	0.829238	0.750275	0.675691
1074	N	0.814276	0.734167	0.969329
1075	C	0.782832	0.704715	0.966234
1076	H	0.774761	0.692991	0.935324
1077	C	0.826773	0.745683	0.761925
1078	H	0.808977	0.729166	0.788364
1079	H	0.832031	0.77218	0.767253
1080	H	0.850997	0.745205	0.76522
