data_C432H360N144O72_2018-02-15_10:32:37
#******************************************
#
# CIF file created by Zeo++
# Zeo++ is an open source package to
# analyze microporous materials
#
#*******************************************

_cell_length_a		43.7829   
_cell_length_b		43.7829   
_cell_length_c		30.1406   
_cell_angle_alpha		90   
_cell_angle_beta		90   
_cell_angle_gamma		120   

_symmetry_space_group_name_H-M		'P1'
_symmetry_Int_Tables_number		1
_symmetry_cell_setting		Monoclinic

loop_
_symmetry_equiv_pos_as_xyz
'+x,+y,+z'

loop_
_atom_site_label
_atom_site_type_symbol
_atom_site_fract_x
_atom_site_fract_y
_atom_site_fract_z
1	C	0.127844	0.320009	0.365994
2	N	0.152327	0.354853	0.032211
3	C	0.187429	0.366297	0.032725
4	N	0.197804	0.341822	0.032454
5	C	0.174144	0.306717	0.032925
6	N	0.139298	0.296355	0.032395
7	C	0.212429	0.402128	0.026995
8	C	0.184971	0.281704	0.027337
9	C	0.092019	0.309151	0.026836
10	O	0.159457	0.247314	0.024397
11	O	0.083134	0.334651	0.023734
12	O	0.246824	0.41101	0.024089
13	C	0.365101	0.175314	0.295865
14	N	0.34059	0.140476	0.962969
15	C	0.305493	0.129076	0.962638
16	N	0.295169	0.153587	0.963119
17	C	0.318866	0.188681	0.962697
18	N	0.353703	0.19901	0.963023
19	C	0.280479	0.093246	0.968331
20	C	0.308079	0.213711	0.968464
21	C	0.400928	0.186095	0.968149
22	O	0.333622	0.24809	0.971423
23	O	0.409757	0.160548	0.971138
24	O	0.246102	0.084402	0.97135
25	C	0.232215	0.269834	0.009323
26	C	0.217934	0.245825	0.306415
27	C	0.231601	0.22336	0.296997
28	C	0.260911	0.225676	0.31983
29	C	0.2752	0.24969	0.022739
30	H	0.221849	0.206836	0.270132
31	C	0.261577	0.27221	0.032096
32	H	0.271271	0.288662	0.059033
33	C	0.299929	0.249045	0.056244
34	H	0.303428	0.226217	0.05294
35	H	0.28981	0.247804	0.089743
36	H	0.325581	0.272993	0.053398
37	C	0.193188	0.246458	0.272919
38	H	0.189696	0.26929	0.276213
39	H	0.167536	0.222511	0.275789
40	H	0.203287	0.247683	0.239413
41	N	0.273483	0.204483	0.305229
42	H	0.256651	0.18231	0.290975
43	N	0.219572	0.290951	0.023993
44	H	0.236419	0.313168	0.038151
45	C	0.224352	0.461233	0.00898
46	C	0.248366	0.47097	0.306071
47	C	0.270878	0.007118	0.296736
48	C	0.268552	0.0341	0.319589
49	C	0.244547	0.024351	0.022504
50	H	0.287363	0.013886	0.269833
51	C	0.222031	0.488213	0.031846
52	H	0.205541	0.481424	0.058745
53	C	0.245223	0.049706	0.056068
54	H	0.268064	0.076027	0.05279
55	H	0.246462	0.040792	0.089546
56	H	0.221285	0.051434	0.053261
57	C	0.24773	0.445609	0.27255
58	H	0.224913	0.419278	0.275849
59	H	0.271688	0.443921	0.275385
60	H	0.246484	0.454497	0.239059
61	N	0.289703	0.067869	0.304975
62	H	0.311888	0.073232	0.29073
63	N	0.203146	0.427454	0.023533
64	H	0.180973	0.422103	0.037787
65	C	0.032933	0.261891	0.008811
66	C	0.023212	0.276116	0.305834
67	C	0.48708	0.262475	0.296434
68	C	0.460078	0.233242	0.31937
69	C	0.469797	0.219006	0.022342
70	H	0.480311	0.272189	0.269526
71	C	0.005938	0.232596	0.031672
72	H	0.012691	0.222946	0.058655
73	C	0.444425	0.194374	0.055927
74	H	0.418114	0.190907	0.052617
75	H	0.453341	0.204563	0.089391
76	H	0.442681	0.168698	0.053182
77	C	0.048596	0.30078	0.272281
78	H	0.074922	0.304288	0.275642
79	H	0.050294	0.326436	0.275013
80	H	0.039726	0.290592	0.238806
81	N	0.4263	0.220696	0.30483
82	H	0.420974	0.237515	0.290515
83	N	0.066693	0.274536	0.023485
84	H	0.072038	0.257708	0.037742
85	C	0.127844	0.320009	0.699329
86	N	0.152327	0.354853	0.365543
87	C	0.187429	0.366297	0.366057
88	N	0.197804	0.341822	0.365789
89	C	0.174144	0.306717	0.36626
90	N	0.139298	0.296355	0.365729
91	C	0.212429	0.402128	0.360328
92	C	0.184971	0.281704	0.360669
93	C	0.092019	0.309151	0.360168
94	O	0.159457	0.247314	0.35773
95	O	0.083134	0.334651	0.35707
96	O	0.246824	0.41101	0.357421
97	C	0.365101	0.175314	0.629197
98	N	0.34059	0.140476	0.296304
99	C	0.305493	0.129076	0.295971
100	N	0.295169	0.153587	0.29645
101	C	0.318866	0.188681	0.296031
102	N	0.353703	0.19901	0.296356
103	C	0.280479	0.093246	0.301664
104	C	0.308079	0.213711	0.301798
105	C	0.400928	0.186095	0.301482
106	O	0.333622	0.24809	0.304757
107	O	0.409757	0.160548	0.304472
108	O	0.246102	0.084402	0.304683
109	C	0.232215	0.269834	0.342657
110	C	0.217934	0.245825	0.639748
111	C	0.231601	0.22336	0.630332
112	C	0.260911	0.225676	0.653165
113	C	0.2752	0.24969	0.356071
114	H	0.221849	0.206836	0.603465
115	C	0.261577	0.27221	0.36543
116	H	0.271271	0.288662	0.392367
117	C	0.299929	0.249045	0.389577
118	H	0.303428	0.226217	0.386273
119	H	0.28981	0.247804	0.423077
120	H	0.325581	0.272993	0.386731
121	C	0.193188	0.246458	0.606252
122	H	0.189696	0.26929	0.609546
123	H	0.167536	0.222511	0.609121
124	H	0.203287	0.247683	0.572745
125	N	0.273483	0.204483	0.638563
126	H	0.256651	0.18231	0.624307
127	N	0.219572	0.290951	0.357325
128	H	0.236419	0.313168	0.371485
129	C	0.224352	0.461233	0.342315
130	C	0.248366	0.47097	0.639406
131	C	0.270878	0.007118	0.63007
132	C	0.268552	0.0341	0.652923
133	C	0.244547	0.024351	0.355839
134	H	0.287363	0.013886	0.603166
135	C	0.222031	0.488213	0.365178
136	H	0.205541	0.481424	0.392079
137	C	0.245223	0.049706	0.389401
138	H	0.268064	0.076027	0.386123
139	H	0.246462	0.040792	0.422878
140	H	0.221285	0.051434	0.386595
141	C	0.24773	0.445609	0.605883
142	H	0.224913	0.419278	0.609181
143	H	0.271688	0.443921	0.60872
144	H	0.246484	0.454497	0.572394
145	N	0.289703	0.067869	0.638308
146	H	0.311888	0.073232	0.624065
147	N	0.203146	0.427454	0.356867
148	H	0.180973	0.422103	0.37112
149	C	0.032933	0.261891	0.342146
150	C	0.023212	0.276116	0.639167
151	C	0.48708	0.262475	0.629768
152	C	0.460078	0.233242	0.652704
153	C	0.469797	0.219006	0.355676
154	H	0.480311	0.272189	0.602861
155	C	0.005938	0.232596	0.365006
156	H	0.012691	0.222946	0.391989
157	C	0.444425	0.194374	0.389259
158	H	0.418114	0.190907	0.385951
159	H	0.453341	0.204563	0.422725
160	H	0.442681	0.168698	0.386515
161	C	0.048596	0.30078	0.605615
162	H	0.074922	0.304288	0.608975
163	H	0.050294	0.326436	0.608345
164	H	0.039726	0.290592	0.572138
165	N	0.4263	0.220696	0.638165
166	H	0.420974	0.237515	0.623849
167	N	0.066693	0.274536	0.356817
168	H	0.072038	0.257708	0.371077
169	C	0.127844	0.320009	0.032661
170	N	0.152327	0.354853	0.698877
171	C	0.187429	0.366297	0.699392
172	N	0.197804	0.341822	0.69912
173	C	0.174144	0.306717	0.699594
174	N	0.139298	0.296355	0.699063
175	C	0.212429	0.402128	0.693662
176	C	0.184971	0.281704	0.694004
177	C	0.092019	0.309151	0.693503
178	O	0.159457	0.247314	0.691064
179	O	0.083134	0.334651	0.6904
180	O	0.246824	0.41101	0.690755
181	C	0.365101	0.175314	0.962531
182	N	0.34059	0.140476	0.629639
183	C	0.305493	0.129076	0.629303
184	N	0.295169	0.153587	0.629785
185	C	0.318866	0.188681	0.629367
186	N	0.353703	0.19901	0.629688
187	C	0.280479	0.093246	0.634997
188	C	0.308079	0.213711	0.635133
189	C	0.400928	0.186095	0.634814
190	O	0.333622	0.24809	0.638092
191	O	0.409757	0.160548	0.637807
192	O	0.246102	0.084402	0.638016
193	C	0.232215	0.269834	0.675991
194	C	0.217934	0.245825	0.973082
195	C	0.231601	0.22336	0.963663
196	C	0.260911	0.225676	0.986499
197	C	0.2752	0.24969	0.689405
198	H	0.221849	0.206836	0.936799
199	C	0.261577	0.27221	0.698765
200	H	0.271271	0.288662	0.725698
201	C	0.299929	0.249045	0.722911
202	H	0.303428	0.226217	0.719607
203	H	0.28981	0.247804	0.756411
204	H	0.325581	0.272993	0.720065
205	C	0.193188	0.246458	0.939586
206	H	0.189696	0.26929	0.94288
207	H	0.167536	0.222511	0.942456
208	H	0.203287	0.247683	0.906079
209	N	0.273483	0.204483	0.971898
210	H	0.256651	0.18231	0.957641
211	N	0.219572	0.290951	0.690659
212	H	0.236419	0.313168	0.70482
213	C	0.224352	0.461233	0.675646
214	C	0.248366	0.47097	0.972737
215	C	0.270878	0.007118	0.963404
216	C	0.268552	0.0341	0.986257
217	C	0.244547	0.024351	0.689173
218	H	0.287363	0.013886	0.9365
219	C	0.222031	0.488213	0.698512
220	H	0.205541	0.481424	0.725413
221	C	0.245223	0.049706	0.722736
222	H	0.268064	0.076027	0.719458
223	H	0.246462	0.040792	0.756212
224	H	0.221285	0.051434	0.719929
225	C	0.24773	0.445609	0.939217
226	H	0.224913	0.419278	0.942515
227	H	0.271688	0.443921	0.942051
228	H	0.246484	0.454497	0.905724
229	N	0.289703	0.067869	0.971642
230	H	0.311888	0.073232	0.957399
231	N	0.203146	0.427454	0.690201
232	H	0.180973	0.422103	0.704455
233	C	0.032933	0.261891	0.675477
234	C	0.023212	0.276116	0.972501
235	C	0.48708	0.262475	0.963102
236	C	0.460078	0.233242	0.986038
237	C	0.469797	0.219006	0.68901
238	H	0.480311	0.272189	0.936195
239	C	0.005938	0.232596	0.69834
240	H	0.012691	0.222946	0.725323
241	C	0.444425	0.194374	0.722593
242	H	0.418114	0.190907	0.719285
243	H	0.453341	0.204563	0.756059
244	H	0.442681	0.168698	0.719849
245	C	0.048596	0.30078	0.938949
246	H	0.074922	0.304288	0.94231
247	H	0.050294	0.326436	0.941679
248	H	0.039726	0.290592	0.905472
249	N	0.4263	0.220696	0.971496
250	H	0.420974	0.237515	0.957183
251	N	0.066693	0.274536	0.690152
252	H	0.072038	0.257708	0.704408
253	C	0.127846	0.820011	0.365994
254	N	0.152328	0.854855	0.032211
255	C	0.18743	0.866296	0.032725
256	N	0.197806	0.841824	0.032454
257	C	0.174145	0.806718	0.032925
258	N	0.1393	0.796356	0.032395
259	C	0.21243	0.902127	0.026995
260	C	0.184972	0.781706	0.027337
261	C	0.09202	0.80915	0.026836
262	O	0.159458	0.747315	0.024397
263	O	0.083134	0.834651	0.023734
264	O	0.246824	0.911009	0.024089
265	C	0.365103	0.675316	0.295865
266	N	0.34059	0.640477	0.962969
267	C	0.305493	0.629076	0.962638
268	N	0.29517	0.653587	0.963119
269	C	0.318867	0.688682	0.962697
270	N	0.353704	0.69901	0.963023
271	C	0.280481	0.593247	0.968331
272	C	0.308079	0.71371	0.968464
273	C	0.400929	0.686095	0.968149
274	O	0.333623	0.748091	0.971423
275	O	0.409759	0.660549	0.971138
276	O	0.246103	0.584402	0.97135
277	C	0.232216	0.769835	0.009323
278	C	0.217934	0.745825	0.306415
279	C	0.231602	0.72336	0.296997
280	C	0.260912	0.725676	0.31983
281	C	0.275201	0.749691	0.022739
282	H	0.22185	0.706837	0.270132
283	C	0.261578	0.772212	0.032096
284	H	0.271271	0.788661	0.059033
285	C	0.29993	0.749045	0.056244
286	H	0.30343	0.726219	0.05294
287	H	0.289812	0.747806	0.089743
288	H	0.325582	0.772995	0.053398
289	C	0.193189	0.746458	0.272919
290	H	0.189696	0.769289	0.276213
291	H	0.167537	0.722511	0.275789
292	H	0.203289	0.747684	0.239413
293	N	0.273484	0.704485	0.305229
294	H	0.256651	0.68231	0.290975
295	N	0.219574	0.790953	0.023993
296	H	0.236421	0.813169	0.038151
297	C	0.224353	0.961232	0.00898
298	C	0.248367	0.970972	0.306071
299	C	0.270878	0.507117	0.296736
300	C	0.268553	0.5341	0.319589
301	C	0.244549	0.524352	0.022504
302	H	0.287363	0.513887	0.269833
303	C	0.222032	0.988215	0.031846
304	H	0.20554	0.981423	0.058745
305	C	0.245224	0.549708	0.056068
306	H	0.268065	0.576028	0.05279
307	H	0.246463	0.540793	0.089546
308	H	0.221286	0.551435	0.053261
309	C	0.247732	0.945611	0.27255
310	H	0.224915	0.91928	0.275849
311	H	0.271688	0.943921	0.275385
312	H	0.246483	0.954496	0.239059
313	N	0.289703	0.567868	0.304975
314	H	0.311888	0.573233	0.29073
315	N	0.203148	0.927456	0.023533
316	H	0.180972	0.922102	0.037787
317	C	0.032934	0.761892	0.008811
318	C	0.023214	0.776117	0.305834
319	C	0.48708	0.762475	0.296434
320	C	0.460078	0.733242	0.31937
321	C	0.469797	0.719006	0.022342
322	H	0.480311	0.772188	0.269526
323	C	0.005939	0.732596	0.031672
324	H	0.012692	0.722946	0.058655
325	C	0.444427	0.694373	0.055927
326	H	0.418114	0.690908	0.052617
327	H	0.453341	0.704564	0.089391
328	H	0.442682	0.668699	0.053182
329	C	0.048596	0.800779	0.272281
330	H	0.074922	0.80429	0.275642
331	H	0.050294	0.826435	0.275013
332	H	0.039726	0.790591	0.238806
333	N	0.426302	0.720697	0.30483
334	H	0.420975	0.737515	0.290515
335	N	0.066695	0.774538	0.023485
336	H	0.072039	0.757709	0.037742
337	C	0.127846	0.820011	0.699329
338	N	0.152328	0.854855	0.365543
339	C	0.18743	0.866296	0.366057
340	N	0.197806	0.841824	0.365789
341	C	0.174145	0.806718	0.36626
342	N	0.1393	0.796356	0.365729
343	C	0.21243	0.902127	0.360328
344	C	0.184972	0.781706	0.360669
345	C	0.09202	0.80915	0.360168
346	O	0.159458	0.747315	0.35773
347	O	0.083134	0.834651	0.35707
348	O	0.246824	0.911009	0.357421
349	C	0.365103	0.675316	0.629197
350	N	0.34059	0.640477	0.296304
351	C	0.305493	0.629076	0.295972
352	N	0.29517	0.653587	0.29645
353	C	0.318867	0.688682	0.296031
354	N	0.353704	0.69901	0.296356
355	C	0.280481	0.593247	0.301664
356	C	0.308079	0.71371	0.301798
357	C	0.400929	0.686095	0.301482
358	O	0.333623	0.748091	0.304757
359	O	0.409759	0.660549	0.304472
360	O	0.246103	0.584402	0.304683
361	C	0.232216	0.769835	0.342657
362	C	0.217934	0.745825	0.639748
363	C	0.231602	0.72336	0.630332
364	C	0.260912	0.725676	0.653165
365	C	0.275201	0.749691	0.356071
366	H	0.22185	0.706837	0.603465
367	C	0.261578	0.772212	0.36543
368	H	0.271271	0.788661	0.392367
369	C	0.29993	0.749045	0.389577
370	H	0.30343	0.726219	0.386273
371	H	0.289812	0.747806	0.423077
372	H	0.325582	0.772995	0.386731
373	C	0.193189	0.746458	0.606252
374	H	0.189696	0.769289	0.609546
375	H	0.167537	0.722511	0.609121
376	H	0.203289	0.747684	0.572745
377	N	0.273484	0.704485	0.638563
378	H	0.256651	0.68231	0.624307
379	N	0.219574	0.790953	0.357325
380	H	0.236421	0.813169	0.371485
381	C	0.224353	0.961232	0.342315
382	C	0.248367	0.970972	0.639406
383	C	0.270878	0.507117	0.63007
384	C	0.268553	0.5341	0.652923
385	C	0.244549	0.524352	0.355839
386	H	0.287363	0.513887	0.603166
387	C	0.222032	0.988215	0.365178
388	H	0.20554	0.981423	0.392079
389	C	0.245224	0.549708	0.389401
390	H	0.268065	0.576028	0.386123
391	H	0.246463	0.540793	0.422878
392	H	0.221286	0.551435	0.386595
393	C	0.247732	0.945611	0.605883
394	H	0.224915	0.91928	0.609181
395	H	0.271688	0.943921	0.60872
396	H	0.246483	0.954496	0.572394
397	N	0.289703	0.567868	0.638308
398	H	0.311888	0.573233	0.624065
399	N	0.203148	0.927456	0.356867
400	H	0.180972	0.922102	0.37112
401	C	0.032934	0.761892	0.342146
402	C	0.023214	0.776117	0.639167
403	C	0.48708	0.762475	0.629768
404	C	0.460078	0.733242	0.652704
405	C	0.469797	0.719006	0.355676
406	H	0.480311	0.772188	0.602861
407	C	0.005939	0.732596	0.365006
408	H	0.012692	0.722946	0.391989
409	C	0.444427	0.694373	0.389259
410	H	0.418114	0.690908	0.385951
411	H	0.453341	0.704564	0.422725
412	H	0.442682	0.668699	0.386515
413	C	0.048596	0.800779	0.605615
414	H	0.074922	0.80429	0.608975
415	H	0.050294	0.826435	0.608345
416	H	0.039726	0.790591	0.572138
417	N	0.426302	0.720697	0.638165
418	H	0.420975	0.737515	0.623849
419	N	0.066695	0.774538	0.356817
420	H	0.072039	0.757709	0.371077
421	C	0.127846	0.820011	0.032661
422	N	0.152328	0.854855	0.698877
423	C	0.18743	0.866296	0.699392
424	N	0.197806	0.841824	0.69912
425	C	0.174145	0.806718	0.699594
426	N	0.1393	0.796356	0.699063
427	C	0.21243	0.902127	0.693662
428	C	0.184972	0.781706	0.694004
429	C	0.09202	0.80915	0.693503
430	O	0.159458	0.747315	0.691064
431	O	0.083134	0.834651	0.6904
432	O	0.246824	0.911009	0.690755
433	C	0.365103	0.675316	0.962531
434	N	0.34059	0.640477	0.629639
435	C	0.305493	0.629076	0.629303
436	N	0.29517	0.653587	0.629785
437	C	0.318867	0.688682	0.629367
438	N	0.353704	0.69901	0.629688
439	C	0.280481	0.593247	0.634997
440	C	0.308079	0.71371	0.635133
441	C	0.400929	0.686095	0.634814
442	O	0.333623	0.748091	0.638092
443	O	0.409759	0.660549	0.637807
444	O	0.246103	0.584402	0.638016
445	C	0.232216	0.769835	0.675991
446	C	0.217934	0.745825	0.973082
447	C	0.231602	0.72336	0.963663
448	C	0.260912	0.725676	0.986499
449	C	0.275201	0.749691	0.689405
450	H	0.22185	0.706837	0.936799
451	C	0.261578	0.772212	0.698765
452	H	0.271271	0.788661	0.725698
453	C	0.29993	0.749045	0.722911
454	H	0.30343	0.726219	0.719607
455	H	0.289812	0.747806	0.756411
456	H	0.325582	0.772995	0.720065
457	C	0.193189	0.746458	0.939586
458	H	0.189696	0.769289	0.94288
459	H	0.167537	0.722511	0.942456
460	H	0.203289	0.747684	0.906079
461	N	0.273484	0.704485	0.971898
462	H	0.256651	0.68231	0.957641
463	N	0.219574	0.790953	0.690659
464	H	0.236421	0.813169	0.70482
465	C	0.224353	0.961232	0.675646
466	C	0.248367	0.970972	0.972737
467	C	0.270878	0.507117	0.963404
468	C	0.268553	0.5341	0.986257
469	C	0.244549	0.524352	0.689173
470	H	0.287363	0.513887	0.9365
471	C	0.222032	0.988215	0.698512
472	H	0.20554	0.981423	0.725413
473	C	0.245224	0.549708	0.722736
474	H	0.268065	0.576028	0.719458
475	H	0.246463	0.540793	0.756212
476	H	0.221286	0.551435	0.719929
477	C	0.247732	0.945611	0.939217
478	H	0.224915	0.91928	0.942515
479	H	0.271688	0.943921	0.942051
480	H	0.246483	0.954496	0.905724
481	N	0.289703	0.567868	0.971642
482	H	0.311888	0.573233	0.957399
483	N	0.203148	0.927456	0.690201
484	H	0.180972	0.922102	0.704455
485	C	0.032934	0.761892	0.675477
486	C	0.023214	0.776117	0.972501
487	C	0.48708	0.762475	0.963102
488	C	0.460078	0.733242	0.986038
489	C	0.469797	0.719006	0.68901
490	H	0.480311	0.772188	0.936195
491	C	0.005939	0.732596	0.69834
492	H	0.012692	0.722946	0.725323
493	C	0.444427	0.694373	0.722593
494	H	0.418114	0.690908	0.719285
495	H	0.453341	0.704564	0.756059
496	H	0.442682	0.668699	0.719849
497	C	0.048596	0.800779	0.938949
498	H	0.074922	0.80429	0.94231
499	H	0.050294	0.826435	0.941679
500	H	0.039726	0.790591	0.905472
501	N	0.426302	0.720697	0.971496
502	H	0.420975	0.737515	0.957183
503	N	0.066695	0.774538	0.690152
504	H	0.072039	0.757709	0.704408
505	C	0.627845	0.320009	0.365994
506	N	0.652327	0.354853	0.032211
507	C	0.68743	0.366297	0.032725
508	N	0.697804	0.341822	0.032454
509	C	0.674144	0.306717	0.032925
510	N	0.639299	0.296355	0.032395
511	C	0.712428	0.402128	0.026995
512	C	0.684971	0.281704	0.027337
513	C	0.592018	0.309151	0.026836
514	O	0.659458	0.247314	0.024397
515	O	0.583135	0.334651	0.023734
516	O	0.746824	0.41101	0.024089
517	C	0.865102	0.175314	0.295865
518	N	0.840589	0.140476	0.962969
519	C	0.805492	0.129076	0.962638
520	N	0.79517	0.153587	0.963119
521	C	0.818865	0.188681	0.962697
522	N	0.853704	0.19901	0.963023
523	C	0.78048	0.093246	0.968331
524	C	0.808079	0.213711	0.968464
525	C	0.90093	0.186095	0.968149
526	O	0.833621	0.24809	0.971423
527	O	0.909758	0.160548	0.971138
528	O	0.746101	0.084402	0.97135
529	C	0.732214	0.269834	0.009323
530	C	0.717935	0.245825	0.306415
531	C	0.7316	0.22336	0.296997
532	C	0.760911	0.225676	0.31983
533	C	0.7752	0.24969	0.022739
534	H	0.721849	0.206836	0.270132
535	C	0.761578	0.27221	0.032096
536	H	0.771272	0.288662	0.059033
537	C	0.79993	0.249045	0.056244
538	H	0.803429	0.226217	0.05294
539	H	0.789811	0.247804	0.089743
540	H	0.825581	0.272993	0.053398
541	C	0.693187	0.246458	0.272919
542	H	0.689696	0.26929	0.276213
543	H	0.667537	0.222511	0.275789
544	H	0.703287	0.247683	0.239413
545	N	0.773483	0.204483	0.305229
546	H	0.75665	0.18231	0.290975
547	N	0.719572	0.290951	0.023993
548	H	0.73642	0.313168	0.038151
549	C	0.724353	0.461233	0.00898
550	C	0.748366	0.47097	0.306071
551	C	0.770877	0.007118	0.296736
552	C	0.768553	0.0341	0.319589
553	C	0.744548	0.024351	0.022504
554	H	0.787362	0.013886	0.269833
555	C	0.722031	0.488213	0.031846
556	H	0.70554	0.481424	0.058745
557	C	0.745224	0.049706	0.056068
558	H	0.768063	0.076027	0.05279
559	H	0.746463	0.040792	0.089546
560	H	0.721285	0.051434	0.053261
561	C	0.747729	0.445609	0.27255
562	H	0.724914	0.419278	0.275849
563	H	0.771687	0.443921	0.275385
564	H	0.746484	0.454497	0.239059
565	N	0.789702	0.067869	0.304975
566	H	0.811887	0.073232	0.29073
567	N	0.703147	0.427454	0.023533
568	H	0.680973	0.422103	0.037787
569	C	0.532934	0.261891	0.008811
570	C	0.523211	0.276116	0.305834
571	C	0.987081	0.262475	0.296434
572	C	0.960079	0.233242	0.31937
573	C	0.969796	0.219006	0.022342
574	H	0.980312	0.272189	0.269526
575	C	0.505939	0.232596	0.031672
576	H	0.512692	0.222946	0.058655
577	C	0.944427	0.194374	0.055927
578	H	0.918113	0.190907	0.052617
579	H	0.95334	0.204563	0.089391
580	H	0.942682	0.168698	0.053182
581	C	0.548596	0.30078	0.272281
582	H	0.574921	0.304288	0.275642
583	H	0.550294	0.326436	0.275013
584	H	0.539727	0.290592	0.238806
585	N	0.926302	0.220696	0.30483
586	H	0.920975	0.237515	0.290515
587	N	0.566692	0.274536	0.023485
588	H	0.572039	0.257708	0.037742
589	C	0.627845	0.320009	0.699329
590	N	0.652327	0.354853	0.365543
591	C	0.68743	0.366297	0.366057
592	N	0.697804	0.341822	0.365789
593	C	0.674144	0.306717	0.36626
594	N	0.639299	0.296355	0.365729
595	C	0.712428	0.402128	0.360328
596	C	0.684971	0.281704	0.360669
597	C	0.592018	0.309151	0.360168
598	O	0.659458	0.247314	0.35773
599	O	0.583135	0.334651	0.35707
600	O	0.746824	0.41101	0.357421
601	C	0.865102	0.175314	0.629197
602	N	0.840589	0.140476	0.296304
603	C	0.805492	0.129076	0.295971
604	N	0.79517	0.153587	0.29645
605	C	0.818865	0.188681	0.296031
606	N	0.853704	0.19901	0.296356
607	C	0.78048	0.093246	0.301664
608	C	0.808079	0.213711	0.301798
609	C	0.90093	0.186095	0.301482
610	O	0.833621	0.24809	0.304757
611	O	0.909758	0.160548	0.304472
612	O	0.746101	0.084402	0.304683
613	C	0.732214	0.269834	0.342657
614	C	0.717935	0.245825	0.639748
615	C	0.7316	0.22336	0.630332
616	C	0.760911	0.225676	0.653165
617	C	0.7752	0.24969	0.356071
618	H	0.721849	0.206836	0.603465
619	C	0.761578	0.27221	0.36543
620	H	0.771272	0.288662	0.392367
621	C	0.79993	0.249045	0.389577
622	H	0.803429	0.226217	0.386273
623	H	0.789811	0.247804	0.423077
624	H	0.825581	0.272993	0.386731
625	C	0.693187	0.246458	0.606252
626	H	0.689696	0.26929	0.609546
627	H	0.667537	0.222511	0.609121
628	H	0.703287	0.247683	0.572745
629	N	0.773483	0.204483	0.638563
630	H	0.75665	0.18231	0.624307
631	N	0.719572	0.290951	0.357325
632	H	0.73642	0.313168	0.371485
633	C	0.724353	0.461233	0.342315
634	C	0.748366	0.47097	0.639406
635	C	0.770877	0.007118	0.63007
636	C	0.768553	0.0341	0.652923
637	C	0.744548	0.024351	0.355839
638	H	0.787362	0.013886	0.603166
639	C	0.722031	0.488213	0.365178
640	H	0.70554	0.481424	0.392079
641	C	0.745224	0.049706	0.389401
642	H	0.768063	0.076027	0.386123
643	H	0.746463	0.040792	0.422878
644	H	0.721285	0.051434	0.386595
645	C	0.747729	0.445609	0.605883
646	H	0.724914	0.419278	0.609181
647	H	0.771687	0.443921	0.60872
648	H	0.746484	0.454497	0.572394
649	N	0.789702	0.067869	0.638308
650	H	0.811887	0.073232	0.624065
651	N	0.703147	0.427454	0.356867
652	H	0.680973	0.422103	0.37112
653	C	0.532934	0.261891	0.342146
654	C	0.523211	0.276116	0.639167
655	C	0.987081	0.262475	0.629768
656	C	0.960079	0.233242	0.652704
657	C	0.969796	0.219006	0.355676
658	H	0.980312	0.272189	0.602861
659	C	0.505939	0.232596	0.365006
660	H	0.512692	0.222946	0.391989
661	C	0.944427	0.194374	0.389259
662	H	0.918113	0.190907	0.385951
663	H	0.95334	0.204563	0.422725
664	H	0.942682	0.168698	0.386515
665	C	0.548596	0.30078	0.605615
666	H	0.574921	0.304288	0.608975
667	H	0.550294	0.326436	0.608345
668	H	0.539727	0.290592	0.572138
669	N	0.926302	0.220696	0.638165
670	H	0.920975	0.237515	0.623849
671	N	0.566692	0.274536	0.356817
672	H	0.572039	0.257708	0.371077
673	C	0.627845	0.320009	0.032661
674	N	0.652327	0.354853	0.698877
675	C	0.68743	0.366297	0.699392
676	N	0.697804	0.341822	0.69912
677	C	0.674144	0.306717	0.699594
678	N	0.639299	0.296355	0.699063
679	C	0.712428	0.402128	0.693662
680	C	0.684971	0.281704	0.694004
681	C	0.592018	0.309151	0.693503
682	O	0.659458	0.247314	0.691064
683	O	0.583135	0.334651	0.6904
684	O	0.746824	0.41101	0.690755
685	C	0.865102	0.175314	0.962531
686	N	0.840589	0.140476	0.629639
687	C	0.805492	0.129076	0.629303
688	N	0.79517	0.153587	0.629785
689	C	0.818865	0.188681	0.629367
690	N	0.853704	0.19901	0.629688
691	C	0.78048	0.093246	0.634997
692	C	0.808079	0.213711	0.635133
693	C	0.90093	0.186095	0.634814
694	O	0.833621	0.24809	0.638092
695	O	0.909758	0.160548	0.637807
696	O	0.746101	0.084402	0.638016
697	C	0.732214	0.269834	0.675991
698	C	0.717935	0.245825	0.973082
699	C	0.7316	0.22336	0.963663
700	C	0.760911	0.225676	0.986499
701	C	0.7752	0.24969	0.689405
702	H	0.721849	0.206836	0.936799
703	C	0.761578	0.27221	0.698765
704	H	0.771272	0.288662	0.725698
705	C	0.79993	0.249045	0.722911
706	H	0.803429	0.226217	0.719607
707	H	0.789811	0.247804	0.756411
708	H	0.825581	0.272993	0.720065
709	C	0.693187	0.246458	0.939586
710	H	0.689696	0.26929	0.94288
711	H	0.667537	0.222511	0.942456
712	H	0.703287	0.247683	0.906079
713	N	0.773483	0.204483	0.971898
714	H	0.75665	0.18231	0.957641
715	N	0.719572	0.290951	0.690659
716	H	0.73642	0.313168	0.70482
717	C	0.724353	0.461233	0.675646
718	C	0.748366	0.47097	0.972737
719	C	0.770877	0.007118	0.963404
720	C	0.768553	0.0341	0.986257
721	C	0.744548	0.024351	0.689173
722	H	0.787362	0.013886	0.9365
723	C	0.722031	0.488213	0.698512
724	H	0.70554	0.481424	0.725413
725	C	0.745224	0.049706	0.722736
726	H	0.768063	0.076027	0.719458
727	H	0.746463	0.040792	0.756212
728	H	0.721285	0.051434	0.719929
729	C	0.747729	0.445609	0.939217
730	H	0.724914	0.419278	0.942515
731	H	0.771687	0.443921	0.942051
732	H	0.746484	0.454497	0.905724
733	N	0.789702	0.067869	0.971642
734	H	0.811887	0.073232	0.957399
735	N	0.703147	0.427454	0.690201
736	H	0.680973	0.422103	0.704455
737	C	0.532934	0.261891	0.675477
738	C	0.523211	0.276116	0.972501
739	C	0.987081	0.262475	0.963102
740	C	0.960079	0.233242	0.986038
741	C	0.969796	0.219006	0.68901
742	H	0.980312	0.272189	0.936195
743	C	0.505939	0.232596	0.69834
744	H	0.512692	0.222946	0.725323
745	C	0.944427	0.194374	0.722593
746	H	0.918113	0.190907	0.719285
747	H	0.95334	0.204563	0.756059
748	H	0.942682	0.168698	0.719849
749	C	0.548596	0.30078	0.938949
750	H	0.574921	0.304288	0.94231
751	H	0.550294	0.326436	0.941679
752	H	0.539727	0.290592	0.905472
753	N	0.926302	0.220696	0.971496
754	H	0.920975	0.237515	0.957183
755	N	0.566692	0.274536	0.690152
756	H	0.572039	0.257708	0.704408
757	C	0.627846	0.820011	0.365994
758	N	0.652328	0.854855	0.032211
759	C	0.687429	0.866296	0.032725
760	N	0.697806	0.841824	0.032454
761	C	0.674146	0.806718	0.032925
762	N	0.639301	0.796356	0.032395
763	C	0.712429	0.902127	0.026995
764	C	0.684973	0.781706	0.027337
765	C	0.592019	0.80915	0.026836
766	O	0.659457	0.747315	0.024397
767	O	0.583134	0.834651	0.023734
768	O	0.746825	0.911009	0.024089
769	C	0.865104	0.675316	0.295865
770	N	0.840591	0.640477	0.962969
771	C	0.805493	0.629076	0.962638
772	N	0.795171	0.653587	0.963119
773	C	0.818867	0.688682	0.962697
774	N	0.853705	0.69901	0.963023
775	C	0.780482	0.593247	0.968331
776	C	0.80808	0.71371	0.968464
777	C	0.90093	0.686095	0.968149
778	O	0.833623	0.748091	0.971423
779	O	0.90976	0.660549	0.971138
780	O	0.746102	0.584402	0.97135
781	C	0.732216	0.769835	0.009323
782	C	0.717934	0.745825	0.306415
783	C	0.731602	0.72336	0.296997
784	C	0.760912	0.725676	0.31983
785	C	0.775201	0.749691	0.022739
786	H	0.721849	0.706837	0.270132
787	C	0.761577	0.772212	0.032096
788	H	0.771271	0.788661	0.059033
789	C	0.799929	0.749045	0.056244
790	H	0.803431	0.726219	0.05294
791	H	0.789813	0.747806	0.089743
792	H	0.825583	0.772995	0.053398
793	C	0.693188	0.746458	0.272919
794	H	0.689696	0.769289	0.276213
795	H	0.667538	0.722511	0.275789
796	H	0.703289	0.747684	0.239413
797	N	0.773483	0.704485	0.305229
798	H	0.756651	0.68231	0.290975
799	N	0.719574	0.790953	0.023993
800	H	0.73642	0.813169	0.038151
801	C	0.724352	0.961232	0.00898
802	C	0.748368	0.970972	0.306071
803	C	0.770878	0.507117	0.296736
804	C	0.768555	0.5341	0.319589
805	C	0.74455	0.524352	0.022504
806	H	0.787364	0.513887	0.269833
807	C	0.722033	0.988215	0.031846
808	H	0.705541	0.981423	0.058745
809	C	0.745223	0.549708	0.056068
810	H	0.768065	0.576028	0.05279
811	H	0.746462	0.540793	0.089546
812	H	0.721287	0.551435	0.053261
813	C	0.747731	0.945611	0.27255
814	H	0.724914	0.91928	0.275849
815	H	0.771688	0.943921	0.275385
816	H	0.746484	0.954496	0.239059
817	N	0.789703	0.567868	0.304975
818	H	0.811888	0.573233	0.29073
819	N	0.703149	0.927456	0.023533
820	H	0.680973	0.922102	0.037787
821	C	0.532934	0.761892	0.008811
822	C	0.523213	0.776117	0.305834
823	C	0.98708	0.762475	0.296434
824	C	0.960077	0.733242	0.31937
825	C	0.969797	0.719006	0.022342
826	H	0.980311	0.772188	0.269526
827	C	0.505939	0.732596	0.031672
828	H	0.512691	0.722946	0.058655
829	C	0.944427	0.694373	0.055927
830	H	0.918114	0.690908	0.052617
831	H	0.953342	0.704564	0.089391
832	H	0.942681	0.668699	0.053182
833	C	0.548596	0.800779	0.272281
834	H	0.574923	0.80429	0.275642
835	H	0.550294	0.826435	0.275013
836	H	0.539726	0.790591	0.238806
837	N	0.926303	0.720697	0.30483
838	H	0.920976	0.737515	0.290515
839	N	0.566694	0.774538	0.023485
840	H	0.572039	0.757709	0.037742
841	C	0.627846	0.820011	0.699329
842	N	0.652328	0.854855	0.365543
843	C	0.687429	0.866296	0.366057
844	N	0.697806	0.841824	0.365789
845	C	0.674146	0.806718	0.36626
846	N	0.639301	0.796356	0.365729
847	C	0.712429	0.902127	0.360328
848	C	0.684973	0.781706	0.360669
849	C	0.592019	0.80915	0.360168
850	O	0.659457	0.747315	0.35773
851	O	0.583134	0.834651	0.35707
852	O	0.746825	0.911009	0.357421
853	C	0.865104	0.675316	0.629197
854	N	0.840591	0.640477	0.296304
855	C	0.805493	0.629076	0.295972
856	N	0.795171	0.653587	0.29645
857	C	0.818867	0.688682	0.296031
858	N	0.853705	0.69901	0.296356
859	C	0.780482	0.593247	0.301664
860	C	0.80808	0.71371	0.301798
861	C	0.90093	0.686095	0.301482
862	O	0.833623	0.748091	0.304757
863	O	0.90976	0.660549	0.304472
864	O	0.746102	0.584402	0.304683
865	C	0.732216	0.769835	0.342657
866	C	0.717934	0.745825	0.639748
867	C	0.731602	0.72336	0.630332
868	C	0.760912	0.725676	0.653165
869	C	0.775201	0.749691	0.356071
870	H	0.721849	0.706837	0.603465
871	C	0.761577	0.772212	0.36543
872	H	0.771271	0.788661	0.392367
873	C	0.799929	0.749045	0.389577
874	H	0.803431	0.726219	0.386273
875	H	0.789813	0.747806	0.423077
876	H	0.825583	0.772995	0.386731
877	C	0.693188	0.746458	0.606252
878	H	0.689696	0.769289	0.609546
879	H	0.667538	0.722511	0.609121
880	H	0.703289	0.747684	0.572745
881	N	0.773483	0.704485	0.638563
882	H	0.756651	0.68231	0.624307
883	N	0.719574	0.790953	0.357325
884	H	0.73642	0.813169	0.371485
885	C	0.724352	0.961232	0.342315
886	C	0.748368	0.970972	0.639406
887	C	0.770878	0.507117	0.63007
888	C	0.768555	0.5341	0.652923
889	C	0.74455	0.524352	0.355839
890	H	0.787364	0.513887	0.603166
891	C	0.722033	0.988215	0.365178
892	H	0.705541	0.981423	0.392079
893	C	0.745223	0.549708	0.389401
894	H	0.768065	0.576028	0.386123
895	H	0.746462	0.540793	0.422878
896	H	0.721287	0.551435	0.386595
897	C	0.747731	0.945611	0.605883
898	H	0.724914	0.91928	0.609181
899	H	0.771688	0.943921	0.60872
900	H	0.746484	0.954496	0.572394
901	N	0.789703	0.567868	0.638308
902	H	0.811888	0.573233	0.624065
903	N	0.703149	0.927456	0.356867
904	H	0.680973	0.922102	0.37112
905	C	0.532934	0.761892	0.342146
906	C	0.523213	0.776117	0.639167
907	C	0.98708	0.762475	0.629768
908	C	0.960077	0.733242	0.652704
909	C	0.969797	0.719006	0.355676
910	H	0.980311	0.772188	0.602861
911	C	0.505939	0.732596	0.365006
912	H	0.512691	0.722946	0.391989
913	C	0.944427	0.694373	0.389259
914	H	0.918114	0.690908	0.385951
915	H	0.953342	0.704564	0.422725
916	H	0.942681	0.668699	0.386515
917	C	0.548596	0.800779	0.605615
918	H	0.574923	0.80429	0.608975
919	H	0.550294	0.826435	0.608345
920	H	0.539726	0.790591	0.572138
921	N	0.926303	0.720697	0.638165
922	H	0.920976	0.737515	0.623849
923	N	0.566694	0.774538	0.356817
924	H	0.572039	0.757709	0.371077
925	C	0.627846	0.820011	0.032661
926	N	0.652328	0.854855	0.698877
927	C	0.687429	0.866296	0.699392
928	N	0.697806	0.841824	0.69912
929	C	0.674146	0.806718	0.699594
930	N	0.639301	0.796356	0.699063
931	C	0.712429	0.902127	0.693662
932	C	0.684973	0.781706	0.694004
933	C	0.592019	0.80915	0.693503
934	O	0.659457	0.747315	0.691064
935	O	0.583134	0.834651	0.6904
936	O	0.746825	0.911009	0.690755
937	C	0.865104	0.675316	0.962531
938	N	0.840591	0.640477	0.629639
939	C	0.805493	0.629076	0.629303
940	N	0.795171	0.653587	0.629785
941	C	0.818867	0.688682	0.629367
942	N	0.853705	0.69901	0.629688
943	C	0.780482	0.593247	0.634997
944	C	0.80808	0.71371	0.635133
945	C	0.90093	0.686095	0.634814
946	O	0.833623	0.748091	0.638092
947	O	0.90976	0.660549	0.637807
948	O	0.746102	0.584402	0.638016
949	C	0.732216	0.769835	0.675991
950	C	0.717934	0.745825	0.973082
951	C	0.731602	0.72336	0.963663
952	C	0.760912	0.725676	0.986499
953	C	0.775201	0.749691	0.689405
954	H	0.721849	0.706837	0.936799
955	C	0.761577	0.772212	0.698765
956	H	0.771271	0.788661	0.725698
957	C	0.799929	0.749045	0.722911
958	H	0.803431	0.726219	0.719607
959	H	0.789813	0.747806	0.756411
960	H	0.825583	0.772995	0.720065
961	C	0.693188	0.746458	0.939586
962	H	0.689696	0.769289	0.94288
963	H	0.667538	0.722511	0.942456
964	H	0.703289	0.747684	0.906079
965	N	0.773483	0.704485	0.971898
966	H	0.756651	0.68231	0.957641
967	N	0.719574	0.790953	0.690659
968	H	0.73642	0.813169	0.70482
969	C	0.724352	0.961232	0.675646
970	C	0.748368	0.970972	0.972737
971	C	0.770878	0.507117	0.963404
972	C	0.768555	0.5341	0.986257
973	C	0.74455	0.524352	0.689173
974	H	0.787364	0.513887	0.9365
975	C	0.722033	0.988215	0.698512
976	H	0.705541	0.981423	0.725413
977	C	0.745223	0.549708	0.722736
978	H	0.768065	0.576028	0.719458
979	H	0.746462	0.540793	0.756212
980	H	0.721287	0.551435	0.719929
981	C	0.747731	0.945611	0.939217
982	H	0.724914	0.91928	0.942515
983	H	0.771688	0.943921	0.942051
984	H	0.746484	0.954496	0.905724
985	N	0.789703	0.567868	0.971642
986	H	0.811888	0.573233	0.957399
987	N	0.703149	0.927456	0.690201
988	H	0.680973	0.922102	0.704455
989	C	0.532934	0.761892	0.675477
990	C	0.523213	0.776117	0.972501
991	C	0.98708	0.762475	0.963102
992	C	0.960077	0.733242	0.986038
993	C	0.969797	0.719006	0.68901
994	H	0.980311	0.772188	0.936195
995	C	0.505939	0.732596	0.69834
996	H	0.512691	0.722946	0.725323
997	C	0.944427	0.694373	0.722593
998	H	0.918114	0.690908	0.719285
999	H	0.953342	0.704564	0.756059
1000	H	0.942681	0.668699	0.719849
1001	C	0.548596	0.800779	0.938949
1002	H	0.574923	0.80429	0.94231
1003	H	0.550294	0.826435	0.941679
1004	H	0.539726	0.790591	0.905472
1005	N	0.926303	0.720697	0.971496
1006	H	0.920976	0.737515	0.957183
1007	N	0.566694	0.774538	0.690152
1008	H	0.572039	0.757709	0.704408
