data_C576H432N72_2018-02-15_10:39:18
#******************************************
#
# CIF file created by Zeo++
# Zeo++ is an open source package to
# analyze microporous materials
#
#*******************************************

_cell_length_a		44.7242   
_cell_length_b		44.7242   
_cell_length_c		29.8436   
_cell_angle_alpha		90   
_cell_angle_beta		90   
_cell_angle_gamma		120   

_symmetry_space_group_name_H-M		'P1'
_symmetry_Int_Tables_number		1
_symmetry_cell_setting		Monoclinic

loop_
_symmetry_equiv_pos_as_xyz
'+x,+y,+z'

loop_
_atom_site_label
_atom_site_type_symbol
_atom_site_fract_x
_atom_site_fract_y
_atom_site_fract_z
1	N	0.042269	0.255522	0.026892
2	C	0.022487	0.263204	0.333292
3	C	0.041213	0.291617	0.303062
4	C	0.024743	0.30411	0.270283
5	H	0.043363	0.326058	0.250361
6	H	0.008802	0.312424	0.287972
7	N	0.042269	0.255522	0.360225
8	C	0.022487	0.263204	0.666625
9	C	0.041213	0.291617	0.636394
10	C	0.024743	0.30411	0.603617
11	H	0.043363	0.326058	0.583693
12	H	0.008802	0.312424	0.621306
13	N	0.042269	0.255522	0.693559
14	C	0.022487	0.263204	0.99996
15	C	0.041213	0.291617	0.969729
16	C	0.024743	0.30411	0.936948
17	H	0.043363	0.326058	0.917027
18	H	0.008802	0.312424	0.95464
19	N	0.042269	0.755522	0.026891
20	C	0.022488	0.763205	0.333292
21	C	0.041214	0.791618	0.303062
22	C	0.024743	0.804112	0.270283
23	H	0.043362	0.82606	0.250362
24	H	0.008801	0.812425	0.287973
25	N	0.042269	0.755522	0.360225
26	C	0.022488	0.763205	0.666625
27	C	0.041214	0.791618	0.636394
28	C	0.024743	0.804112	0.603617
29	H	0.043362	0.82606	0.583696
30	H	0.008801	0.812425	0.621306
31	N	0.042269	0.755522	0.693559
32	C	0.022488	0.763205	0.99996
33	C	0.041214	0.791618	0.969729
34	C	0.024743	0.804112	0.936951
35	H	0.043362	0.82606	0.917027
36	H	0.008801	0.812425	0.95464
37	H	0.008871	0.283495	0.246809
38	H	0.008871	0.283495	0.580141
39	H	0.008871	0.283495	0.913475
40	H	0.00887	0.783496	0.246809
41	H	0.00887	0.783496	0.580141
42	H	0.00887	0.783496	0.913475
43	C	0.077127	0.271644	0.028171
44	C	0.077908	0.309315	0.3039
45	H	0.091484	0.329294	0.282076
46	H	0.088615	0.263372	0.050737
47	C	0.077127	0.271644	0.361505
48	C	0.077908	0.309315	0.637232
49	H	0.091484	0.329294	0.615408
50	H	0.088615	0.263372	0.384069
51	C	0.077127	0.271644	0.694839
52	C	0.077908	0.309315	0.970566
53	H	0.091484	0.329294	0.948743
54	H	0.088615	0.263372	0.717403
55	C	0.077125	0.771643	0.02817
56	C	0.077909	0.809316	0.3039
57	H	0.091484	0.829295	0.282076
58	H	0.088613	0.76337	0.050735
59	C	0.077125	0.771643	0.361505
60	C	0.077909	0.809316	0.637232
61	H	0.091484	0.829295	0.615408
62	H	0.088613	0.76337	0.384069
63	C	0.077125	0.771643	0.694836
64	C	0.077909	0.809316	0.970566
65	H	0.091484	0.829295	0.948743
66	H	0.088613	0.76337	0.717403
67	C	0.09672	0.299889	0.333015
68	C	0.09672	0.299889	0.66635
69	C	0.09672	0.299889	0.999682
70	C	0.096719	0.799888	0.333015
71	C	0.096719	0.799888	0.666347
72	C	0.096719	0.799888	0.999682
73	C	0.133677	0.317928	0.000171
74	C	0.152917	0.354466	0.000201
75	C	0.189466	0.372864	0.000167
76	C	0.206762	0.353622	0.000234
77	C	0.188609	0.317074	0.000194
78	C	0.152072	0.299776	0.000234
79	H	0.233199	0.366526	0.000137
80	H	0.138541	0.273338	0.000127
81	H	0.140009	0.367995	7.4e-05
82	C	0.374127	0.187264	0.00434
83	C	0.354894	0.150734	0.004298
84	C	0.318351	0.132411	0.004339
85	C	0.301052	0.151641	0.004326
86	C	0.319271	0.188186	0.004361
87	C	0.355801	0.205482	0.004323
88	H	0.27461	0.138751	0.004467
89	H	0.369355	0.231924	0.004457
90	H	0.36778	0.137178	0.004405
91	C	0.206648	0.298154	0.333043
92	C	0.234902	0.306816	0.028187
93	N	0.251024	0.28808	0.026908
94	C	0.243332	0.260607	0.333319
95	C	0.214912	0.250912	0.303101
96	C	0.197214	0.269909	0.303939
97	H	0.177231	0.263501	0.282121
98	C	0.264492	0.244517	0.004725
99	C	0.292243	0.253551	0.035869
100	C	0.310067	0.234678	0.034886
101	C	0.301277	0.20711	0.004838
102	C	0.273705	0.199085	0.308742
103	N	0.257523	0.217761	0.310122
104	H	0.329603	0.240609	0.057287
105	H	0.265964	0.179818	0.285513
106	H	0.243182	0.326583	0.050743
107	C	0.303775	0.281569	0.069931
108	H	0.282387	0.276374	0.092253
109	H	0.312942	0.306359	0.053267
110	H	0.32489	0.284073	0.090975
111	C	0.202408	0.221938	0.270335
112	H	0.223017	0.226679	0.246848
113	H	0.180452	0.218602	0.250426
114	H	0.194106	0.19769	0.288034
115	C	0.208384	0.409823	0.333009
116	C	0.199677	0.429419	0.028078
117	N	0.218417	0.464276	0.026806
118	C	0.245942	0.484056	0.333294
119	C	0.255685	0.46533	0.303147
120	C	0.23668	0.428634	0.303976
121	H	0.243122	0.415059	0.282206
122	C	0.262034	0.021306	0.004699
123	C	0.253049	0.04002	0.035915
124	C	0.271914	0.076717	0.034925
125	C	0.299426	0.095495	0.004804
126	C	0.307401	0.075952	0.308633
127	N	0.288731	0.041094	0.310019
128	H	0.26602	0.090321	0.057375
129	H	0.326629	0.087483	0.285354
130	H	0.179873	0.417935	0.050584
131	C	0.225105	0.02353	0.070073
132	H	0.230331	0.507313	0.092302
133	H	0.200275	0.007932	0.053491
134	H	0.222667	0.04214	0.091203
135	C	0.284727	0.481799	0.270478
136	H	0.280023	0.997642	0.246909
137	H	0.288123	0.463179	0.250657
138	H	0.308934	0.49777	0.288251
139	C	0.485239	0.242045	0.004698
140	C	0.466522	0.214284	0.03583
141	C	0.429824	0.19646	0.034846
142	C	0.411045	0.205257	0.004809
143	C	0.430593	0.232841	0.308729
144	N	0.46545	0.249023	0.310109
145	H	0.416221	0.176918	0.05724
146	H	0.419066	0.24059	0.285511
147	C	0.483007	0.202741	0.069878
148	H	0.999195	0.224121	0.092213
149	H	0.498635	0.193585	0.053203
150	H	0.464396	0.181616	0.090909
151	H	0.508871	0.283495	0.246809
152	C	0.133677	0.317928	0.333505
153	C	0.152917	0.354466	0.333535
154	C	0.189466	0.372864	0.333502
155	C	0.206762	0.353622	0.333568
156	C	0.188609	0.317074	0.333529
157	C	0.152072	0.299776	0.333569
158	H	0.233199	0.366526	0.333469
159	H	0.138541	0.273338	0.333459
160	H	0.140009	0.367995	0.333406
161	C	0.374127	0.187264	0.337674
162	C	0.354894	0.150734	0.33763
163	C	0.318351	0.132411	0.337674
164	C	0.301052	0.151641	0.33766
165	C	0.319271	0.188186	0.337694
166	C	0.355801	0.205482	0.337657
167	H	0.27461	0.138751	0.337801
168	H	0.369355	0.231924	0.337791
169	H	0.36778	0.137178	0.337737
170	C	0.206648	0.298154	0.666377
171	C	0.234902	0.306816	0.361521
172	N	0.251024	0.28808	0.360241
173	C	0.243332	0.260607	0.666652
174	C	0.214912	0.250912	0.636435
175	C	0.197214	0.269909	0.637272
176	H	0.177231	0.263501	0.615455
177	C	0.264492	0.244517	0.338059
178	C	0.292243	0.253551	0.369201
179	C	0.310067	0.234678	0.36822
180	C	0.301277	0.20711	0.33817
181	C	0.273705	0.199085	0.642074
182	N	0.257523	0.217761	0.643454
183	H	0.329603	0.240609	0.39062
184	H	0.265964	0.179818	0.618846
185	H	0.243182	0.326583	0.384076
186	C	0.303775	0.281569	0.403266
187	H	0.282387	0.276374	0.425585
188	H	0.312942	0.306359	0.386602
189	H	0.32489	0.284073	0.424309
190	C	0.202408	0.221938	0.603667
191	H	0.223017	0.226679	0.580181
192	H	0.180452	0.218602	0.58376
193	H	0.194106	0.19769	0.621366
194	C	0.208384	0.409823	0.666344
195	C	0.199677	0.429419	0.361411
196	N	0.218417	0.464276	0.360141
197	C	0.245942	0.484056	0.666629
198	C	0.255685	0.46533	0.636481
199	C	0.23668	0.428634	0.637309
200	H	0.243122	0.415059	0.615539
201	C	0.262034	0.021306	0.338032
202	C	0.253049	0.04002	0.369248
203	C	0.271914	0.076717	0.36826
204	C	0.299426	0.095495	0.338136
205	C	0.307401	0.075952	0.641967
206	N	0.288731	0.041094	0.643354
207	H	0.26602	0.090321	0.39071
208	H	0.326629	0.087483	0.618689
209	H	0.179873	0.417935	0.383918
210	C	0.225105	0.02353	0.403406
211	H	0.230331	0.507313	0.425636
212	H	0.200275	0.007932	0.386823
213	H	0.222667	0.04214	0.424537
214	C	0.284727	0.481799	0.603811
215	H	0.280023	0.997642	0.580242
216	H	0.288123	0.463179	0.583991
217	H	0.308934	0.49777	0.621584
218	C	0.485239	0.242045	0.338032
219	C	0.466522	0.214284	0.369165
220	C	0.429824	0.19646	0.368179
221	C	0.411045	0.205257	0.338143
222	C	0.430593	0.232841	0.642064
223	N	0.46545	0.249023	0.643441
224	H	0.416221	0.176918	0.390573
225	H	0.419066	0.24059	0.618846
226	C	0.483007	0.202741	0.403212
227	H	0.999195	0.224121	0.425548
228	H	0.498635	0.193585	0.386535
229	H	0.464396	0.181616	0.424242
230	H	0.508871	0.283495	0.580141
231	C	0.133677	0.317928	0.66684
232	C	0.152917	0.354466	0.666867
233	C	0.189466	0.372864	0.666836
234	C	0.206762	0.353622	0.666903
235	C	0.188609	0.317074	0.666863
236	C	0.152072	0.299776	0.666903
237	H	0.233199	0.366526	0.666803
238	H	0.138541	0.273338	0.666793
239	H	0.140009	0.367995	0.666739
240	C	0.374127	0.187264	0.671008
241	C	0.354894	0.150734	0.670965
242	C	0.318351	0.132411	0.671005
243	C	0.301052	0.151641	0.670995
244	C	0.319271	0.188186	0.671028
245	C	0.355801	0.205482	0.670988
246	H	0.27461	0.138751	0.671132
247	H	0.369355	0.231924	0.671125
248	H	0.36778	0.137178	0.671072
249	C	0.206648	0.298154	0.999712
250	C	0.234902	0.306816	0.694852
251	N	0.251024	0.28808	0.693576
252	C	0.243332	0.260607	0.999986
253	C	0.214912	0.250912	0.969769
254	C	0.197214	0.269909	0.970607
255	H	0.177231	0.263501	0.94879
256	C	0.264492	0.244517	0.67139
257	C	0.292243	0.253551	0.702536
258	C	0.310067	0.234678	0.701551
259	C	0.301277	0.20711	0.671504
260	C	0.273705	0.199085	0.975408
261	N	0.257523	0.217761	0.976789
262	H	0.329603	0.240609	0.723954
263	H	0.265964	0.179818	0.952181
264	H	0.243182	0.326583	0.71741
265	C	0.303775	0.281569	0.736597
266	H	0.282387	0.276374	0.75892
267	H	0.312942	0.306359	0.719933
268	H	0.32489	0.284073	0.757643
269	C	0.202408	0.221938	0.937001
270	H	0.223017	0.226679	0.913516
271	H	0.180452	0.218602	0.917094
272	H	0.194106	0.19769	0.9547
273	C	0.208384	0.409823	0.999675
274	C	0.199677	0.429419	0.694745
275	N	0.218417	0.464276	0.693472
276	C	0.245942	0.484056	0.99996
277	C	0.255685	0.46533	0.969812
278	C	0.23668	0.428634	0.970643
279	H	0.243122	0.415059	0.948873
280	C	0.262034	0.021306	0.671367
281	C	0.253049	0.04002	0.702583
282	C	0.271914	0.076717	0.701591
283	C	0.299426	0.095495	0.671471
284	C	0.307401	0.075952	0.975301
285	N	0.288731	0.041094	0.976685
286	H	0.26602	0.090321	0.724041
287	H	0.326629	0.087483	0.95202
288	H	0.179873	0.417935	0.717249
289	C	0.225105	0.02353	0.736741
290	H	0.230331	0.507313	0.75897
291	H	0.200275	0.007932	0.720158
292	H	0.222667	0.04214	0.757871
293	C	0.284727	0.481799	0.937146
294	H	0.280023	0.997642	0.913576
295	H	0.288123	0.463179	0.917326
296	H	0.308934	0.49777	0.954918
297	C	0.485239	0.242045	0.671363
298	C	0.466522	0.214284	0.702496
299	C	0.429824	0.19646	0.701514
300	C	0.411045	0.205257	0.671477
301	C	0.430593	0.232841	0.975395
302	N	0.46545	0.249023	0.976775
303	H	0.416221	0.176918	0.723907
304	H	0.419066	0.24059	0.952177
305	C	0.483007	0.202741	0.736543
306	H	0.999195	0.224121	0.75888
307	H	0.498635	0.193585	0.719869
308	H	0.464396	0.181616	0.757576
309	H	0.508871	0.283495	0.913475
310	C	0.133678	0.817929	0.000171
311	C	0.152916	0.854465	0.000201
312	C	0.189464	0.872863	0.000171
313	C	0.206761	0.853621	0.000238
314	C	0.188608	0.817072	0.000198
315	C	0.15207	0.799774	0.000234
316	H	0.233198	0.866525	0.000137
317	H	0.138542	0.773339	0.000124
318	H	0.140008	0.867994	7.4e-05
319	C	0.374127	0.687263	0.00434
320	C	0.354894	0.650733	0.004299
321	C	0.31835	0.63241	0.00434
322	C	0.301052	0.651642	0.004328
323	C	0.31927	0.688185	0.004362
324	C	0.355801	0.705483	0.004323
325	H	0.27461	0.638751	0.004468
326	H	0.369354	0.731924	0.004457
327	H	0.36778	0.637179	0.004406
328	C	0.206648	0.798155	0.333044
329	C	0.2349	0.806815	0.02819
330	N	0.251022	0.788078	0.026911
331	C	0.243332	0.760608	0.33332
332	C	0.214913	0.750913	0.303098
333	C	0.197215	0.76991	0.303937
334	H	0.177233	0.763505	0.282118
335	C	0.264492	0.744518	0.004726
336	C	0.292245	0.753554	0.035867
337	C	0.310068	0.734679	0.034884
338	C	0.301277	0.70711	0.004839
339	C	0.273702	0.699083	0.308746
340	N	0.257521	0.71776	0.310126
341	H	0.329606	0.740612	0.057284
342	H	0.26596	0.679815	0.285519
343	H	0.243177	0.826579	0.050748
344	C	0.303781	0.781575	0.069926
345	H	0.282394	0.77638	0.09225
346	H	0.312945	0.806363	0.053259
347	H	0.324897	0.784079	0.090967
348	C	0.202412	0.721942	0.270329
349	H	0.223024	0.726685	0.246845
350	H	0.180459	0.718609	0.250417
351	H	0.194108	0.697694	0.288025
352	C	0.208386	0.909824	0.333009
353	C	0.199677	0.92942	0.028077
354	N	0.218416	0.964278	0.026805
355	C	0.245942	0.984057	0.333294
356	C	0.255685	0.965331	0.303148
357	C	0.23668	0.928635	0.303977
358	H	0.243124	0.91506	0.282208
359	C	0.262033	0.521306	0.004699
360	C	0.253048	0.540019	0.035915
361	C	0.271913	0.576717	0.034925
362	C	0.299426	0.595495	0.004805
363	C	0.307403	0.575953	0.308636
364	N	0.288732	0.541093	0.310021
365	H	0.266019	0.590321	0.057375
366	H	0.326631	0.587484	0.285357
367	H	0.179871	0.917936	0.050581
368	C	0.225102	0.523529	0.070071
369	H	0.230335	0.007313	0.092303
370	H	0.200272	0.50793	0.053487
371	H	0.222663	0.542139	0.091199
372	C	0.28473	0.9818	0.270482
373	H	0.280021	0.497644	0.246907
374	H	0.288128	0.96318	0.250662
375	H	0.308935	0.997772	0.288255
376	C	0.485238	0.742044	0.004698
377	C	0.466522	0.714285	0.03583
378	C	0.429824	0.69646	0.034847
379	C	0.411045	0.705256	0.004809
380	C	0.430593	0.73284	0.308728
381	N	0.46545	0.749023	0.310109
382	H	0.41622	0.676918	0.057241
383	H	0.419066	0.740588	0.28551
384	C	0.483007	0.702741	0.069879
385	H	0.999195	0.724121	0.092214
386	H	0.498636	0.693586	0.053204
387	H	0.464395	0.681617	0.090911
388	H	0.508871	0.783496	0.246809
389	C	0.133678	0.817929	0.333504
390	C	0.152916	0.854465	0.333534
391	C	0.189464	0.872863	0.333502
392	C	0.206761	0.853621	0.33357
393	C	0.188608	0.817072	0.333529
394	C	0.15207	0.799774	0.333569
395	H	0.233198	0.866525	0.333471
396	H	0.138542	0.773339	0.333458
397	H	0.140008	0.867994	0.333406
398	C	0.374127	0.687263	0.337674
399	C	0.354894	0.650733	0.337633
400	C	0.31835	0.63241	0.337674
401	C	0.301052	0.651642	0.33766
402	C	0.31927	0.688185	0.337694
403	C	0.355801	0.705483	0.337657
404	H	0.27461	0.638751	0.337801
405	H	0.369354	0.731924	0.337791
406	H	0.36778	0.637179	0.337741
407	C	0.206648	0.798155	0.666377
408	C	0.2349	0.806815	0.361525
409	N	0.251022	0.788078	0.360245
410	C	0.243332	0.760608	0.666652
411	C	0.214913	0.750913	0.636431
412	C	0.197215	0.76991	0.637269
413	H	0.177233	0.763505	0.615452
414	C	0.264492	0.744518	0.338059
415	C	0.292245	0.753554	0.369201
416	C	0.310068	0.734679	0.368216
417	C	0.301277	0.70711	0.338173
418	C	0.273702	0.699083	0.642077
419	N	0.257521	0.71776	0.643461
420	H	0.329606	0.740612	0.390616
421	H	0.26596	0.679815	0.618853
422	H	0.243177	0.826579	0.384082
423	C	0.303781	0.781575	0.403259
424	H	0.282394	0.77638	0.425582
425	H	0.312945	0.806363	0.386592
426	H	0.324897	0.784079	0.424299
427	C	0.202412	0.721942	0.603664
428	H	0.223024	0.726685	0.580178
429	H	0.180459	0.718609	0.58375
430	H	0.194108	0.697694	0.621359
431	C	0.208386	0.909824	0.666344
432	C	0.199677	0.92942	0.361411
433	N	0.218416	0.964278	0.360137
434	C	0.245942	0.984057	0.666625
435	C	0.255685	0.965331	0.636481
436	C	0.23668	0.928635	0.637312
437	H	0.243124	0.91506	0.615542
438	C	0.262033	0.521306	0.338032
439	C	0.253048	0.540019	0.369248
440	C	0.271913	0.576717	0.36826
441	C	0.299426	0.595495	0.338139
442	C	0.307403	0.575953	0.64197
443	N	0.288732	0.541093	0.643354
444	H	0.266019	0.590321	0.390707
445	H	0.326631	0.587484	0.618692
446	H	0.179871	0.917936	0.383915
447	C	0.225102	0.523529	0.403403
448	H	0.230335	0.007313	0.425636
449	H	0.200272	0.50793	0.38682
450	H	0.222663	0.542139	0.424533
451	C	0.28473	0.9818	0.603814
452	H	0.280021	0.497644	0.580242
453	H	0.288128	0.96318	0.583994
454	H	0.308935	0.997772	0.621587
455	C	0.485238	0.742044	0.338032
456	C	0.466522	0.714285	0.369165
457	C	0.429824	0.69646	0.368179
458	C	0.411045	0.705256	0.338143
459	C	0.430593	0.73284	0.642061
460	N	0.46545	0.749023	0.643441
461	H	0.41622	0.676918	0.390576
462	H	0.419066	0.740588	0.618843
463	C	0.483007	0.702741	0.403212
464	H	0.999195	0.724121	0.425548
465	H	0.498636	0.693586	0.386538
466	H	0.464395	0.681617	0.424245
467	H	0.508871	0.783496	0.580141
468	C	0.133678	0.817929	0.666836
469	C	0.152916	0.854465	0.666867
470	C	0.189464	0.872863	0.666836
471	C	0.206761	0.853621	0.666903
472	C	0.188608	0.817072	0.666863
473	C	0.15207	0.799774	0.666903
474	H	0.233198	0.866525	0.666803
475	H	0.138542	0.773339	0.666793
476	H	0.140008	0.867994	0.666739
477	C	0.374127	0.687263	0.671008
478	C	0.354894	0.650733	0.670965
479	C	0.31835	0.63241	0.671008
480	C	0.301052	0.651642	0.670995
481	C	0.31927	0.688185	0.671028
482	C	0.355801	0.705483	0.670991
483	H	0.27461	0.638751	0.671135
484	H	0.369354	0.731924	0.671125
485	H	0.36778	0.637179	0.671072
486	C	0.206648	0.798155	0.999712
487	C	0.2349	0.806815	0.694856
488	N	0.251022	0.788078	0.693579
489	C	0.243332	0.760608	0.999986
490	C	0.214913	0.750913	0.969766
491	C	0.197215	0.76991	0.970603
492	H	0.177233	0.763505	0.948786
493	C	0.264492	0.744518	0.671393
494	C	0.292245	0.753554	0.702532
495	C	0.310068	0.734679	0.701551
496	C	0.301277	0.70711	0.671504
497	C	0.273702	0.699083	0.975412
498	N	0.257521	0.71776	0.976792
499	H	0.329606	0.740612	0.723951
500	H	0.26596	0.679815	0.952187
501	H	0.243177	0.826579	0.717417
502	C	0.303781	0.781575	0.736593
503	H	0.282394	0.77638	0.758916
504	H	0.312945	0.806363	0.719926
505	H	0.324897	0.784079	0.757633
506	C	0.202412	0.721942	0.936995
507	H	0.223024	0.726685	0.913512
508	H	0.180459	0.718609	0.917084
509	H	0.194108	0.697694	0.95469
510	C	0.208386	0.909824	0.999675
511	C	0.199677	0.92942	0.694745
512	N	0.218416	0.964278	0.693472
513	C	0.245942	0.984057	0.99996
514	C	0.255685	0.965331	0.969816
515	C	0.23668	0.928635	0.970643
516	H	0.243124	0.91506	0.948873
517	C	0.262033	0.521306	0.671367
518	C	0.253048	0.540019	0.702583
519	C	0.271913	0.576717	0.701591
520	C	0.299426	0.595495	0.671471
521	C	0.307403	0.575953	0.975301
522	N	0.288732	0.541093	0.976688
523	H	0.266019	0.590321	0.724041
524	H	0.326631	0.587484	0.952023
525	H	0.179871	0.917936	0.717249
526	C	0.225102	0.523529	0.736737
527	H	0.230335	0.007313	0.75897
528	H	0.200272	0.50793	0.720154
529	H	0.222663	0.542139	0.757868
530	C	0.28473	0.9818	0.937149
531	H	0.280021	0.497644	0.913573
532	H	0.288128	0.96318	0.917329
533	H	0.308935	0.997772	0.954922
534	C	0.485238	0.742044	0.671363
535	C	0.466522	0.714285	0.702496
536	C	0.429824	0.69646	0.701514
537	C	0.411045	0.705256	0.671477
538	C	0.430593	0.73284	0.975395
539	N	0.46545	0.749023	0.976775
540	H	0.41622	0.676918	0.723907
541	H	0.419066	0.740588	0.952177
542	C	0.483007	0.702741	0.736546
543	H	0.999195	0.724121	0.75888
544	H	0.498636	0.693586	0.719869
545	H	0.464395	0.681617	0.757576
546	H	0.508871	0.783496	0.913475
547	C	0.633678	0.317928	0.000171
548	C	0.652917	0.354466	0.000201
549	C	0.689466	0.372864	0.000167
550	C	0.706763	0.353622	0.000234
551	C	0.68861	0.317074	0.000194
552	C	0.652072	0.299776	0.000234
553	H	0.7332	0.366526	0.000137
554	H	0.63854	0.273338	0.000127
555	H	0.64001	0.367995	7.4e-05
556	C	0.874127	0.187264	0.00434
557	C	0.854894	0.150734	0.004298
558	C	0.818351	0.132411	0.004339
559	C	0.801052	0.151641	0.004326
560	C	0.819271	0.188186	0.004361
561	C	0.855801	0.205482	0.004323
562	H	0.774611	0.138751	0.004467
563	H	0.869355	0.231924	0.004457
564	H	0.86778	0.137178	0.004405
565	C	0.706648	0.298154	0.333043
566	C	0.734903	0.306816	0.028187
567	N	0.751025	0.28808	0.026908
568	C	0.743332	0.260607	0.333319
569	C	0.714913	0.250912	0.303101
570	C	0.697214	0.269909	0.303939
571	H	0.677231	0.263501	0.282121
572	C	0.764492	0.244517	0.004725
573	C	0.792243	0.253551	0.035869
574	C	0.810067	0.234678	0.034886
575	C	0.801278	0.20711	0.004838
576	C	0.773705	0.199085	0.308742
577	N	0.757523	0.217761	0.310122
578	H	0.829603	0.240609	0.057287
579	H	0.765963	0.179818	0.285513
580	H	0.743181	0.326583	0.050743
581	C	0.803777	0.281569	0.069931
582	H	0.782389	0.276374	0.092253
583	H	0.812943	0.306359	0.053267
584	H	0.82489	0.284073	0.090975
585	C	0.70241	0.221938	0.270335
586	H	0.723019	0.226679	0.246848
587	H	0.680453	0.218602	0.250426
588	H	0.694107	0.19769	0.288034
589	C	0.708384	0.409823	0.333009
590	C	0.699677	0.429419	0.028078
591	N	0.718416	0.464276	0.026806
592	C	0.745943	0.484056	0.333294
593	C	0.755686	0.46533	0.303147
594	C	0.736681	0.428634	0.303976
595	H	0.743123	0.415059	0.282206
596	C	0.762034	0.021306	0.004699
597	C	0.753049	0.04002	0.035915
598	C	0.771914	0.076717	0.034925
599	C	0.799426	0.095495	0.004804
600	C	0.807403	0.075952	0.308633
601	N	0.788731	0.041094	0.310019
602	H	0.766021	0.090321	0.057375
603	H	0.826629	0.087483	0.285354
604	H	0.679874	0.417935	0.050584
605	C	0.725106	0.02353	0.070073
606	H	0.730331	0.507313	0.092302
607	H	0.700276	0.007932	0.053491
608	H	0.722668	0.04214	0.091203
609	C	0.784728	0.481799	0.270478
610	H	0.780022	0.997642	0.246909
611	H	0.788123	0.463179	0.250657
612	H	0.808933	0.49777	0.288251
613	C	0.596721	0.299889	0.333015
614	C	0.577127	0.271644	0.028171
615	N	0.54227	0.255522	0.026892
616	C	0.522489	0.263204	0.333292
617	C	0.541214	0.291617	0.303062
618	C	0.57791	0.309315	0.3039
619	H	0.591485	0.329294	0.282076
620	C	0.985239	0.242045	0.004698
621	C	0.966522	0.214284	0.03583
622	C	0.929824	0.19646	0.034846
623	C	0.911045	0.205257	0.004809
624	C	0.930593	0.232841	0.308729
625	N	0.96545	0.249023	0.310109
626	H	0.916221	0.176918	0.05724
627	H	0.919066	0.24059	0.285511
628	H	0.588615	0.263372	0.050737
629	C	0.983007	0.202741	0.069878
630	H	0.499195	0.224121	0.092213
631	H	0.998637	0.193585	0.053203
632	H	0.964396	0.181616	0.090909
633	C	0.524744	0.30411	0.270283
634	H	0.543365	0.326058	0.250361
635	H	0.508802	0.312424	0.287972
636	C	0.633678	0.317928	0.333505
637	C	0.652917	0.354466	0.333535
638	C	0.689466	0.372864	0.333502
639	C	0.706763	0.353622	0.333568
640	C	0.68861	0.317074	0.333529
641	C	0.652072	0.299776	0.333569
642	H	0.7332	0.366526	0.333469
643	H	0.63854	0.273338	0.333459
644	H	0.64001	0.367995	0.333406
645	C	0.874127	0.187264	0.337674
646	C	0.854894	0.150734	0.33763
647	C	0.818351	0.132411	0.337674
648	C	0.801052	0.151641	0.33766
649	C	0.819271	0.188186	0.337694
650	C	0.855801	0.205482	0.337657
651	H	0.774611	0.138751	0.337801
652	H	0.869355	0.231924	0.337791
653	H	0.86778	0.137178	0.337737
654	C	0.706648	0.298154	0.666377
655	C	0.734903	0.306816	0.361521
656	N	0.751025	0.28808	0.360241
657	C	0.743332	0.260607	0.666652
658	C	0.714913	0.250912	0.636435
659	C	0.697214	0.269909	0.637272
660	H	0.677231	0.263501	0.615455
661	C	0.764492	0.244517	0.338059
662	C	0.792243	0.253551	0.369201
663	C	0.810067	0.234678	0.36822
664	C	0.801278	0.20711	0.33817
665	C	0.773705	0.199085	0.642074
666	N	0.757523	0.217761	0.643454
667	H	0.829603	0.240609	0.39062
668	H	0.765963	0.179818	0.618846
669	H	0.743181	0.326583	0.384076
670	C	0.803777	0.281569	0.403266
671	H	0.782389	0.276374	0.425585
672	H	0.812943	0.306359	0.386602
673	H	0.82489	0.284073	0.424309
674	C	0.70241	0.221938	0.603667
675	H	0.723019	0.226679	0.580181
676	H	0.680453	0.218602	0.58376
677	H	0.694107	0.19769	0.621366
678	C	0.708384	0.409823	0.666344
679	C	0.699677	0.429419	0.361411
680	N	0.718416	0.464276	0.360141
681	C	0.745943	0.484056	0.666629
682	C	0.755686	0.46533	0.636481
683	C	0.736681	0.428634	0.637309
684	H	0.743123	0.415059	0.615539
685	C	0.762034	0.021306	0.338032
686	C	0.753049	0.04002	0.369248
687	C	0.771914	0.076717	0.36826
688	C	0.799426	0.095495	0.338136
689	C	0.807403	0.075952	0.641967
690	N	0.788731	0.041094	0.643354
691	H	0.766021	0.090321	0.39071
692	H	0.826629	0.087483	0.618689
693	H	0.679874	0.417935	0.383918
694	C	0.725106	0.02353	0.403406
695	H	0.730331	0.507313	0.425636
696	H	0.700276	0.007932	0.386823
697	H	0.722668	0.04214	0.424537
698	C	0.784728	0.481799	0.603811
699	H	0.780022	0.997642	0.580242
700	H	0.788123	0.463179	0.583991
701	H	0.808933	0.49777	0.621584
702	C	0.596721	0.299889	0.66635
703	C	0.577127	0.271644	0.361505
704	N	0.54227	0.255522	0.360225
705	C	0.522489	0.263204	0.666625
706	C	0.541214	0.291617	0.636394
707	C	0.57791	0.309315	0.637232
708	H	0.591485	0.329294	0.615408
709	C	0.985239	0.242045	0.338032
710	C	0.966522	0.214284	0.369165
711	C	0.929824	0.19646	0.368179
712	C	0.911045	0.205257	0.338143
713	C	0.930593	0.232841	0.642064
714	N	0.96545	0.249023	0.643441
715	H	0.916221	0.176918	0.390573
716	H	0.919066	0.24059	0.618846
717	H	0.588615	0.263372	0.384069
718	C	0.983007	0.202741	0.403212
719	H	0.499195	0.224121	0.425548
720	H	0.998637	0.193585	0.386535
721	H	0.964396	0.181616	0.424242
722	C	0.524744	0.30411	0.603617
723	H	0.543365	0.326058	0.583693
724	H	0.508802	0.312424	0.621306
725	C	0.633678	0.317928	0.66684
726	C	0.652917	0.354466	0.666867
727	C	0.689466	0.372864	0.666836
728	C	0.706763	0.353622	0.666903
729	C	0.68861	0.317074	0.666863
730	C	0.652072	0.299776	0.666903
731	H	0.7332	0.366526	0.666803
732	H	0.63854	0.273338	0.666793
733	H	0.64001	0.367995	0.666739
734	C	0.874127	0.187264	0.671008
735	C	0.854894	0.150734	0.670965
736	C	0.818351	0.132411	0.671005
737	C	0.801052	0.151641	0.670995
738	C	0.819271	0.188186	0.671028
739	C	0.855801	0.205482	0.670988
740	H	0.774611	0.138751	0.671132
741	H	0.869355	0.231924	0.671125
742	H	0.86778	0.137178	0.671072
743	C	0.706648	0.298154	0.999712
744	C	0.734903	0.306816	0.694852
745	N	0.751025	0.28808	0.693576
746	C	0.743332	0.260607	0.999986
747	C	0.714913	0.250912	0.969769
748	C	0.697214	0.269909	0.970607
749	H	0.677231	0.263501	0.94879
750	C	0.764492	0.244517	0.67139
751	C	0.792243	0.253551	0.702536
752	C	0.810067	0.234678	0.701551
753	C	0.801278	0.20711	0.671504
754	C	0.773705	0.199085	0.975408
755	N	0.757523	0.217761	0.976789
756	H	0.829603	0.240609	0.723954
757	H	0.765963	0.179818	0.952181
758	H	0.743181	0.326583	0.71741
759	C	0.803777	0.281569	0.736597
760	H	0.782389	0.276374	0.75892
761	H	0.812943	0.306359	0.719933
762	H	0.82489	0.284073	0.757643
763	C	0.70241	0.221938	0.937001
764	H	0.723019	0.226679	0.913516
765	H	0.680453	0.218602	0.917094
766	H	0.694107	0.19769	0.9547
767	C	0.708384	0.409823	0.999675
768	C	0.699677	0.429419	0.694745
769	N	0.718416	0.464276	0.693472
770	C	0.745943	0.484056	0.99996
771	C	0.755686	0.46533	0.969812
772	C	0.736681	0.428634	0.970643
773	H	0.743123	0.415059	0.948873
774	C	0.762034	0.021306	0.671367
775	C	0.753049	0.04002	0.702583
776	C	0.771914	0.076717	0.701591
777	C	0.799426	0.095495	0.671471
778	C	0.807403	0.075952	0.975301
779	N	0.788731	0.041094	0.976685
780	H	0.766021	0.090321	0.724041
781	H	0.826629	0.087483	0.95202
782	H	0.679874	0.417935	0.717249
783	C	0.725106	0.02353	0.736741
784	H	0.730331	0.507313	0.75897
785	H	0.700276	0.007932	0.720158
786	H	0.722668	0.04214	0.757871
787	C	0.784728	0.481799	0.937146
788	H	0.780022	0.997642	0.913576
789	H	0.788123	0.463179	0.917326
790	H	0.808933	0.49777	0.954918
791	C	0.596721	0.299889	0.999682
792	C	0.577127	0.271644	0.694839
793	N	0.54227	0.255522	0.693559
794	C	0.522489	0.263204	0.99996
795	C	0.541214	0.291617	0.969729
796	C	0.57791	0.309315	0.970566
797	H	0.591485	0.329294	0.948743
798	C	0.985239	0.242045	0.671363
799	C	0.966522	0.214284	0.702496
800	C	0.929824	0.19646	0.701514
801	C	0.911045	0.205257	0.671477
802	C	0.930593	0.232841	0.975395
803	N	0.96545	0.249023	0.976775
804	H	0.916221	0.176918	0.723907
805	H	0.919066	0.24059	0.952177
806	H	0.588615	0.263372	0.717403
807	C	0.983007	0.202741	0.736543
808	H	0.499195	0.224121	0.75888
809	H	0.998637	0.193585	0.719869
810	H	0.964396	0.181616	0.757576
811	C	0.524744	0.30411	0.936948
812	H	0.543365	0.326058	0.917027
813	H	0.508802	0.312424	0.95464
814	C	0.633678	0.817929	0.000171
815	C	0.652916	0.854465	0.000201
816	C	0.689467	0.872863	0.000171
817	C	0.706762	0.853621	0.000238
818	C	0.688608	0.817072	0.000198
819	C	0.65207	0.799774	0.000234
820	H	0.733198	0.866525	0.000137
821	H	0.638542	0.773339	0.000124
822	H	0.640008	0.867994	7.4e-05
823	C	0.874127	0.687263	0.00434
824	C	0.854894	0.650733	0.004299
825	C	0.818349	0.63241	0.00434
826	C	0.801054	0.651642	0.004328
827	C	0.819272	0.688185	0.004362
828	C	0.8558	0.705483	0.004323
829	H	0.77461	0.638751	0.004468
830	H	0.869354	0.731924	0.004457
831	H	0.86778	0.637179	0.004406
832	C	0.706649	0.798155	0.333044
833	C	0.734901	0.806815	0.02819
834	N	0.751023	0.788078	0.026911
835	C	0.743333	0.760608	0.33332
836	C	0.714913	0.750913	0.303098
837	C	0.697216	0.76991	0.303937
838	H	0.677234	0.763505	0.282118
839	C	0.764492	0.744518	0.004726
840	C	0.792246	0.753554	0.035867
841	C	0.810068	0.734679	0.034884
842	C	0.801277	0.70711	0.004839
843	C	0.773701	0.699083	0.308746
844	N	0.757521	0.71776	0.310126
845	H	0.829605	0.740612	0.057284
846	H	0.765961	0.679815	0.285519
847	H	0.743178	0.826579	0.050748
848	C	0.803781	0.781575	0.069926
849	H	0.782395	0.77638	0.09225
850	H	0.812944	0.806363	0.053259
851	H	0.824897	0.784079	0.090967
852	C	0.702413	0.721942	0.270329
853	H	0.723025	0.726685	0.246845
854	H	0.68046	0.718609	0.250417
855	H	0.694107	0.697694	0.288025
856	C	0.708386	0.909824	0.333009
857	C	0.699677	0.92942	0.028077
858	N	0.718416	0.964278	0.026805
859	C	0.745942	0.984057	0.333294
860	C	0.755688	0.965331	0.303148
861	C	0.73668	0.928635	0.303977
862	H	0.743125	0.91506	0.282208
863	C	0.762033	0.521306	0.004699
864	C	0.753048	0.540019	0.035915
865	C	0.771913	0.576717	0.034925
866	C	0.799427	0.595495	0.004805
867	C	0.807402	0.575953	0.308636
868	N	0.788731	0.541093	0.310021
869	H	0.76602	0.590321	0.057375
870	H	0.82663	0.587484	0.285357
871	H	0.679872	0.917936	0.050581
872	C	0.725102	0.523529	0.070071
873	H	0.730335	0.007313	0.092303
874	H	0.700274	0.50793	0.053487
875	H	0.722664	0.542139	0.091199
876	C	0.78473	0.9818	0.270482
877	H	0.780022	0.497644	0.246907
878	H	0.788129	0.96318	0.250662
879	H	0.808935	0.997772	0.288255
880	C	0.596719	0.799888	0.333015
881	C	0.577126	0.771643	0.02817
882	N	0.542269	0.755522	0.026891
883	C	0.522488	0.763205	0.333292
884	C	0.541213	0.791618	0.303062
885	C	0.577909	0.809316	0.3039
886	H	0.591484	0.829295	0.282076
887	C	0.985238	0.742044	0.004698
888	C	0.966522	0.714285	0.03583
889	C	0.929823	0.69646	0.034847
890	C	0.911046	0.705256	0.004809
891	C	0.930593	0.73284	0.308728
892	N	0.965451	0.749023	0.310109
893	H	0.91622	0.676918	0.057241
894	H	0.919066	0.740588	0.28551
895	H	0.588614	0.76337	0.050735
896	C	0.983009	0.702741	0.069879
897	H	0.499195	0.724121	0.092214
898	H	0.998637	0.693586	0.053204
899	H	0.964395	0.681617	0.090911
900	C	0.524743	0.804112	0.270283
901	H	0.543363	0.82606	0.250362
902	H	0.508802	0.812425	0.287973
903	C	0.633678	0.817929	0.333504
904	C	0.652916	0.854465	0.333534
905	C	0.689467	0.872863	0.333502
906	C	0.706762	0.853621	0.33357
907	C	0.688608	0.817072	0.333529
908	C	0.65207	0.799774	0.333569
909	H	0.733198	0.866525	0.333471
910	H	0.638542	0.773339	0.333458
911	H	0.640008	0.867994	0.333406
912	C	0.874127	0.687263	0.337674
913	C	0.854894	0.650733	0.337633
914	C	0.818349	0.63241	0.337674
915	C	0.801054	0.651642	0.33766
916	C	0.819272	0.688185	0.337694
917	C	0.8558	0.705483	0.337657
918	H	0.77461	0.638751	0.337801
919	H	0.869354	0.731924	0.337791
920	H	0.86778	0.637179	0.337741
921	C	0.706649	0.798155	0.666377
922	C	0.734901	0.806815	0.361525
923	N	0.751023	0.788078	0.360245
924	C	0.743333	0.760608	0.666652
925	C	0.714913	0.750913	0.636431
926	C	0.697216	0.76991	0.637269
927	H	0.677234	0.763505	0.615452
928	C	0.764492	0.744518	0.338059
929	C	0.792246	0.753554	0.369201
930	C	0.810068	0.734679	0.368216
931	C	0.801277	0.70711	0.338173
932	C	0.773701	0.699083	0.642077
933	N	0.757521	0.71776	0.643461
934	H	0.829605	0.740612	0.390616
935	H	0.765961	0.679815	0.618853
936	H	0.743178	0.826579	0.384082
937	C	0.803781	0.781575	0.403259
938	H	0.782395	0.77638	0.425582
939	H	0.812944	0.806363	0.386592
940	H	0.824897	0.784079	0.424299
941	C	0.702413	0.721942	0.603664
942	H	0.723025	0.726685	0.580178
943	H	0.68046	0.718609	0.58375
944	H	0.694107	0.697694	0.621359
945	C	0.708386	0.909824	0.666344
946	C	0.699677	0.92942	0.361411
947	N	0.718416	0.964278	0.360137
948	C	0.745942	0.984057	0.666625
949	C	0.755688	0.965331	0.636481
950	C	0.73668	0.928635	0.637312
951	H	0.743125	0.91506	0.615542
952	C	0.762033	0.521306	0.338032
953	C	0.753048	0.540019	0.369248
954	C	0.771913	0.576717	0.36826
955	C	0.799427	0.595495	0.338139
956	C	0.807402	0.575953	0.64197
957	N	0.788731	0.541093	0.643354
958	H	0.76602	0.590321	0.390707
959	H	0.82663	0.587484	0.618692
960	H	0.679872	0.917936	0.383915
961	C	0.725102	0.523529	0.403403
962	H	0.730335	0.007313	0.425636
963	H	0.700274	0.50793	0.38682
964	H	0.722664	0.542139	0.424533
965	C	0.78473	0.9818	0.603814
966	H	0.780022	0.497644	0.580242
967	H	0.788129	0.96318	0.583994
968	H	0.808935	0.997772	0.621587
969	C	0.596719	0.799888	0.666347
970	C	0.577126	0.771643	0.361505
971	N	0.542269	0.755522	0.360225
972	C	0.522488	0.763205	0.666625
973	C	0.541213	0.791618	0.636394
974	C	0.577909	0.809316	0.637232
975	H	0.591484	0.829295	0.615408
976	C	0.985238	0.742044	0.338032
977	C	0.966522	0.714285	0.369165
978	C	0.929823	0.69646	0.368179
979	C	0.911046	0.705256	0.338143
980	C	0.930593	0.73284	0.642061
981	N	0.965451	0.749023	0.643441
982	H	0.91622	0.676918	0.390576
983	H	0.919066	0.740588	0.618843
984	H	0.588614	0.76337	0.384069
985	C	0.983009	0.702741	0.403212
986	H	0.499195	0.724121	0.425548
987	H	0.998637	0.693586	0.386538
988	H	0.964395	0.681617	0.424245
989	C	0.524743	0.804112	0.603617
990	H	0.543363	0.82606	0.583696
991	H	0.508802	0.812425	0.621306
992	C	0.633678	0.817929	0.666836
993	C	0.652916	0.854465	0.666867
994	C	0.689467	0.872863	0.666836
995	C	0.706762	0.853621	0.666903
996	C	0.688608	0.817072	0.666863
997	C	0.65207	0.799774	0.666903
998	H	0.733198	0.866525	0.666803
999	H	0.638542	0.773339	0.666793
1000	H	0.640008	0.867994	0.666739
1001	C	0.874127	0.687263	0.671008
1002	C	0.854894	0.650733	0.670965
1003	C	0.818349	0.63241	0.671008
1004	C	0.801054	0.651642	0.670995
1005	C	0.819272	0.688185	0.671028
1006	C	0.8558	0.705483	0.670991
1007	H	0.77461	0.638751	0.671135
1008	H	0.869354	0.731924	0.671125
1009	H	0.86778	0.637179	0.671072
1010	C	0.706649	0.798155	0.999712
1011	C	0.734901	0.806815	0.694856
1012	N	0.751023	0.788078	0.693579
1013	C	0.743333	0.760608	0.999986
1014	C	0.714913	0.750913	0.969766
1015	C	0.697216	0.76991	0.970603
1016	H	0.677234	0.763505	0.948786
1017	C	0.764492	0.744518	0.671393
1018	C	0.792246	0.753554	0.702532
1019	C	0.810068	0.734679	0.701551
1020	C	0.801277	0.70711	0.671504
1021	C	0.773701	0.699083	0.975412
1022	N	0.757521	0.71776	0.976792
1023	H	0.829605	0.740612	0.723951
1024	H	0.765961	0.679815	0.952187
1025	H	0.743178	0.826579	0.717417
1026	C	0.803781	0.781575	0.736593
1027	H	0.782395	0.77638	0.758916
1028	H	0.812944	0.806363	0.719926
1029	H	0.824897	0.784079	0.757633
1030	C	0.702413	0.721942	0.936995
1031	H	0.723025	0.726685	0.913512
1032	H	0.68046	0.718609	0.917084
1033	H	0.694107	0.697694	0.95469
1034	C	0.708386	0.909824	0.999675
1035	C	0.699677	0.92942	0.694745
1036	N	0.718416	0.964278	0.693472
1037	C	0.745942	0.984057	0.99996
1038	C	0.755688	0.965331	0.969816
1039	C	0.73668	0.928635	0.970643
1040	H	0.743125	0.91506	0.948873
1041	C	0.762033	0.521306	0.671367
1042	C	0.753048	0.540019	0.702583
1043	C	0.771913	0.576717	0.701591
1044	C	0.799427	0.595495	0.671471
1045	C	0.807402	0.575953	0.975301
1046	N	0.788731	0.541093	0.976688
1047	H	0.76602	0.590321	0.724041
1048	H	0.82663	0.587484	0.952023
1049	H	0.679872	0.917936	0.717249
1050	C	0.725102	0.523529	0.736737
1051	H	0.730335	0.007313	0.75897
1052	H	0.700274	0.50793	0.720154
1053	H	0.722664	0.542139	0.757868
1054	C	0.78473	0.9818	0.937149
1055	H	0.780022	0.497644	0.913573
1056	H	0.788129	0.96318	0.917329
1057	H	0.808935	0.997772	0.954922
1058	C	0.596719	0.799888	0.999682
1059	C	0.577126	0.771643	0.694836
1060	N	0.542269	0.755522	0.693559
1061	C	0.522488	0.763205	0.99996
1062	C	0.541213	0.791618	0.969729
1063	C	0.577909	0.809316	0.970566
1064	H	0.591484	0.829295	0.948743
1065	C	0.985238	0.742044	0.671363
1066	C	0.966522	0.714285	0.702496
1067	C	0.929823	0.69646	0.701514
1068	C	0.911046	0.705256	0.671477
1069	C	0.930593	0.73284	0.975395
1070	N	0.965451	0.749023	0.976775
1071	H	0.91622	0.676918	0.723907
1072	H	0.919066	0.740588	0.952177
1073	H	0.588614	0.76337	0.717403
1074	C	0.983009	0.702741	0.736546
1075	H	0.499195	0.724121	0.75888
1076	H	0.998637	0.693586	0.719869
1077	H	0.964395	0.681617	0.757576
1078	C	0.524743	0.804112	0.936951
1079	H	0.543363	0.82606	0.917027
1080	H	0.508802	0.812425	0.95464
