data_C396H288N216O72_2018-02-15_10:32:37
#******************************************
#
# CIF file created by Zeo++
# Zeo++ is an open source package to
# analyze microporous materials
#
#*******************************************

_cell_length_a		43.2319   
_cell_length_b		43.232   
_cell_length_c		30.104   
_cell_angle_alpha		90   
_cell_angle_beta		90   
_cell_angle_gamma		120   

_symmetry_space_group_name_H-M		'P1'
_symmetry_Int_Tables_number		1
_symmetry_cell_setting		Monoclinic

loop_
_symmetry_equiv_pos_as_xyz
'+x,+y,+z'

loop_
_atom_site_label
_atom_site_type_symbol
_atom_site_fract_x
_atom_site_fract_y
_atom_site_fract_z
1	C	0.128986	0.323318	0.38747
2	N	0.155935	0.357781	0.053813
3	C	0.190853	0.36667	0.054166
4	N	0.198371	0.339725	0.053828
5	C	0.172347	0.304805	0.054156
6	N	0.137885	0.297295	0.053793
7	C	0.218462	0.402407	0.050033
8	C	0.180476	0.277201	0.04997
9	C	0.09325	0.315177	0.049939
10	O	0.152403	0.243448	0.047701
11	O	0.087561	0.343243	0.047669
12	O	0.252219	0.408091	0.0478
13	C	0.366661	0.176945	0.307253
14	N	0.342505	0.141449	0.974376
15	C	0.306794	0.128996	0.974017
16	N	0.295452	0.153149	0.974386
17	C	0.318714	0.188857	0.973937
18	N	0.354211	0.200205	0.974299
19	C	0.282201	0.092515	0.979873
20	C	0.306847	0.213475	0.979714
21	C	0.403145	0.188802	0.979687
22	O	0.332327	0.248063	0.986318
23	O	0.412234	0.163316	0.986364
24	O	0.247621	0.083406	0.986543
25	C	0.264769	0.273307	0.039756
26	C	0.228096	0.262843	0.033696
27	C	0.207844	0.231211	0.341822
28	N	0.222868	0.21276	0.324941
29	C	0.257888	0.22342	0.330738
30	N	0.27765	0.253173	0.022069
31	H	0.181914	0.222179	0.333547
32	C	0.289691	0.303176	0.068751
33	C	0.329884	0.324853	0.058029
34	C	0.306117	0.341194	0.049619
35	H	0.283206	0.301373	0.104074
36	H	0.309621	0.362025	0.072961
37	H	0.301002	0.343737	0.014652
38	H	0.339278	0.317912	0.028046
39	H	0.347803	0.335828	0.086488
40	N	0.214851	0.283884	0.048658
41	H	0.232584	0.307599	0.0586
42	N	0.271542	0.203532	0.31423
43	H	0.25431	0.179947	0.302888
44	C	0.222436	0.490639	0.040003
45	C	0.232857	0.464405	0.033858
46	C	0.264494	0.475788	0.341991
47	N	0.282925	0.009256	0.325083
48	C	0.272285	0.033628	0.330927
49	N	0.242558	0.023649	0.022306
50	H	0.273449	0.458852	0.33358
51	C	0.192545	0.485655	0.068983
52	C	0.170917	0.504237	0.058343
53	C	0.154546	0.464146	0.049776
54	H	0.194304	0.480887	0.104288
55	H	0.13368	0.446774	0.073056
56	H	0.152033	0.456571	0.014781
57	H	0.177899	0.020646	0.028423
58	H	0.159923	0.511125	0.086833
59	N	0.211788	0.430105	0.048752
60	H	0.188068	0.424119	0.058681
61	N	0.292156	0.067161	0.314386
62	H	0.315722	0.073505	0.302983
63	C	0.005075	0.230882	0.039671
64	C	0.031283	0.267556	0.033621
65	C	0.019897	0.287807	0.341755
66	N	0.486419	0.272781	0.324879
67	C	0.46206	0.23776	0.330681
68	N	0.472055	0.217998	0.022008
69	H	0.036793	0.31374	0.333487
70	C	0.010014	0.205973	0.068705
71	C	0.991497	0.165775	0.058011
72	C	0.031606	0.189534	0.049614
73	H	0.014686	0.212472	0.104024
74	H	0.048925	0.186037	0.072978
75	H	0.039276	0.194633	0.014649
76	H	0.475169	0.156369	0.028024
77	H	0.984541	0.147867	0.086485
78	N	0.065563	0.280802	0.048605
79	H	0.07155	0.263067	0.058529
80	N	0.428513	0.224105	0.314185
81	H	0.422163	0.241336	0.302828
82	C	0.128986	0.323318	0.720801
83	N	0.155935	0.357781	0.387148
84	C	0.190853	0.36667	0.3875
85	N	0.198371	0.339725	0.387161
86	C	0.172347	0.304805	0.38749
87	N	0.137885	0.297295	0.387128
88	C	0.218462	0.402407	0.383368
89	C	0.180476	0.277201	0.383301
90	C	0.09325	0.315177	0.383271
91	O	0.152403	0.243448	0.381032
92	O	0.087561	0.343243	0.381003
93	O	0.252219	0.408091	0.381132
94	C	0.366661	0.176945	0.640586
95	N	0.342505	0.141449	0.307708
96	C	0.306794	0.128996	0.30735
97	N	0.295452	0.153149	0.307719
98	C	0.318714	0.188857	0.307271
99	N	0.354211	0.200205	0.307634
100	C	0.282201	0.092515	0.313207
101	C	0.306847	0.213475	0.313046
102	C	0.403145	0.188802	0.313022
103	O	0.332327	0.248063	0.319652
104	O	0.412234	0.163316	0.319698
105	O	0.247621	0.083406	0.319877
106	C	0.264769	0.273307	0.37309
107	C	0.228096	0.262843	0.367031
108	C	0.207844	0.231211	0.675156
109	N	0.222868	0.21276	0.658275
110	C	0.257888	0.22342	0.664071
111	N	0.27765	0.253173	0.355401
112	H	0.181914	0.222179	0.666882
113	C	0.289691	0.303176	0.402083
114	C	0.329884	0.324853	0.391363
115	C	0.306117	0.341194	0.382952
116	H	0.283206	0.301373	0.437407
117	H	0.309621	0.362025	0.406295
118	H	0.301002	0.343737	0.347987
119	H	0.339278	0.317912	0.361381
120	H	0.347803	0.335828	0.419821
121	N	0.214851	0.283884	0.381992
122	H	0.232584	0.307599	0.391935
123	N	0.271542	0.203532	0.647565
124	H	0.25431	0.179947	0.636221
125	C	0.222436	0.490639	0.373336
126	C	0.232857	0.464405	0.36719
127	C	0.264494	0.475788	0.675322
128	N	0.282925	0.009256	0.658418
129	C	0.272285	0.033628	0.664261
130	N	0.242558	0.023649	0.355641
131	H	0.273449	0.458852	0.666915
132	C	0.192545	0.485655	0.402315
133	C	0.170917	0.504237	0.391676
134	C	0.154546	0.464146	0.383109
135	H	0.194304	0.480887	0.437623
136	H	0.13368	0.446774	0.406388
137	H	0.152033	0.456571	0.348113
138	H	0.177899	0.020646	0.361756
139	H	0.159923	0.511125	0.420167
140	N	0.211788	0.430105	0.382086
141	H	0.188068	0.424119	0.392014
142	N	0.292156	0.067161	0.647718
143	H	0.315722	0.073505	0.636318
144	C	0.005075	0.230882	0.373004
145	C	0.031283	0.267556	0.366955
146	C	0.019897	0.287807	0.67509
147	N	0.486419	0.272781	0.658212
148	C	0.46206	0.23776	0.664015
149	N	0.472055	0.217998	0.355342
150	H	0.036793	0.31374	0.666822
151	C	0.010014	0.205973	0.402036
152	C	0.991497	0.165775	0.391343
153	C	0.031606	0.189534	0.382946
154	H	0.014686	0.212472	0.437357
155	H	0.048925	0.186037	0.406312
156	H	0.039276	0.194633	0.347984
157	H	0.475169	0.156369	0.361357
158	H	0.984541	0.147867	0.419818
159	N	0.065563	0.280802	0.381939
160	H	0.07155	0.263067	0.391862
161	N	0.428513	0.224105	0.647519
162	H	0.422163	0.241336	0.636161
163	C	0.128986	0.323318	0.054135
164	N	0.155935	0.357781	0.720479
165	C	0.190853	0.36667	0.720831
166	N	0.198371	0.339725	0.720496
167	C	0.172347	0.304805	0.720821
168	N	0.137885	0.297295	0.720459
169	C	0.218462	0.402407	0.716699
170	C	0.180476	0.277201	0.716636
171	C	0.09325	0.315177	0.716606
172	O	0.152403	0.243448	0.714367
173	O	0.087561	0.343243	0.714337
174	O	0.252219	0.408091	0.714467
175	C	0.366661	0.176945	0.973921
176	N	0.342505	0.141449	0.641041
177	C	0.306794	0.128996	0.640682
178	N	0.295452	0.153149	0.641051
179	C	0.318714	0.188857	0.640603
180	N	0.354211	0.200205	0.640968
181	C	0.282201	0.092515	0.646539
182	C	0.306847	0.213475	0.646379
183	C	0.403145	0.188802	0.646356
184	O	0.332327	0.248063	0.652986
185	O	0.412234	0.163316	0.65303
186	O	0.247621	0.083406	0.653209
187	C	0.264769	0.273307	0.706421
188	C	0.228096	0.262843	0.700362
189	C	0.207844	0.231211	0.008488
190	N	0.222868	0.21276	0.991606
191	C	0.257888	0.22342	0.997406
192	N	0.27765	0.253173	0.688736
193	H	0.181914	0.222179	0.000215
194	C	0.289691	0.303176	0.735417
195	C	0.329884	0.324853	0.724695
196	C	0.306117	0.341194	0.716287
197	H	0.283206	0.301373	0.770742
198	H	0.309621	0.362025	0.739626
199	H	0.301002	0.343737	0.681318
200	H	0.339278	0.317912	0.694712
201	H	0.347803	0.335828	0.753153
202	N	0.214851	0.283884	0.715324
203	H	0.232584	0.307599	0.725266
204	N	0.271542	0.203532	0.980896
205	H	0.25431	0.179947	0.969556
206	C	0.222436	0.490639	0.70667
207	C	0.232857	0.464405	0.700525
208	C	0.264494	0.475788	0.008657
209	N	0.282925	0.009256	0.991749
210	C	0.272285	0.033628	0.997592
211	N	0.242558	0.023649	0.688972
212	H	0.273449	0.458852	0.000248
213	C	0.192545	0.485655	0.73565
214	C	0.170917	0.504237	0.72501
215	C	0.154546	0.464146	0.716443
216	H	0.194304	0.480887	0.770954
217	H	0.13368	0.446774	0.739722
218	H	0.152033	0.456571	0.681448
219	H	0.177899	0.020646	0.69509
220	H	0.159923	0.511125	0.753498
221	N	0.211788	0.430105	0.71542
222	H	0.188068	0.424119	0.725349
223	N	0.292156	0.067161	0.981053
224	H	0.315722	0.073505	0.969649
225	C	0.005075	0.230882	0.706338
226	C	0.031283	0.267556	0.700286
227	C	0.019897	0.287807	0.008422
228	N	0.486419	0.272781	0.991546
229	C	0.46206	0.23776	0.997346
230	N	0.472055	0.217998	0.688673
231	H	0.036793	0.31374	0.000154
232	C	0.010014	0.205973	0.735371
233	C	0.991497	0.165775	0.724678
234	C	0.031606	0.189534	0.71628
235	H	0.014686	0.212472	0.770692
236	H	0.048925	0.186037	0.739646
237	H	0.039276	0.194633	0.681315
238	H	0.475169	0.156369	0.694692
239	H	0.984541	0.147867	0.753153
240	N	0.065563	0.280802	0.715271
241	H	0.07155	0.263067	0.725196
242	N	0.428513	0.224105	0.98085
243	H	0.422163	0.241336	0.969493
244	C	0.128987	0.823318	0.38747
245	N	0.155934	0.857779	0.053813
246	C	0.190853	0.86667	0.054166
247	N	0.198372	0.839726	0.053828
248	C	0.172346	0.804803	0.054156
249	N	0.137885	0.797295	0.053793
250	C	0.218462	0.902407	0.050033
251	C	0.180477	0.777202	0.04997
252	C	0.09325	0.815177	0.049939
253	O	0.152404	0.743449	0.047701
254	O	0.087561	0.843243	0.047669
255	O	0.252219	0.908091	0.0478
256	C	0.366662	0.676945	0.307253
257	N	0.342506	0.641448	0.974376
258	C	0.306794	0.628996	0.974017
259	N	0.295453	0.65315	0.974386
260	C	0.318715	0.688857	0.973937
261	N	0.35421	0.700204	0.974299
262	C	0.282202	0.592514	0.979873
263	C	0.306848	0.713476	0.979714
264	C	0.403145	0.688801	0.979687
265	O	0.332328	0.748064	0.986318
266	O	0.412235	0.663315	0.986364
267	O	0.247621	0.583406	0.986543
268	C	0.26477	0.773307	0.039756
269	C	0.228096	0.762843	0.033696
270	C	0.207844	0.731211	0.341822
271	N	0.222868	0.71276	0.324941
272	C	0.257888	0.723419	0.330738
273	N	0.277651	0.753174	0.022069
274	H	0.181915	0.72218	0.333547
275	C	0.289691	0.803176	0.068751
276	C	0.329883	0.824851	0.058029
277	C	0.306117	0.841192	0.049619
278	H	0.283207	0.801374	0.104074
279	H	0.309622	0.862025	0.072961
280	H	0.301002	0.843737	0.014652
281	H	0.339279	0.817912	0.028046
282	H	0.347804	0.835829	0.086488
283	N	0.214851	0.783884	0.048658
284	H	0.232585	0.8076	0.0586
285	N	0.271543	0.703532	0.31423
286	H	0.25431	0.679947	0.302888
287	C	0.222437	0.990639	0.040003
288	C	0.232858	0.964405	0.033858
289	C	0.264493	0.975786	0.341991
290	N	0.282924	0.509255	0.325083
291	C	0.272285	0.533628	0.330927
292	N	0.242558	0.523649	0.022306
293	H	0.27345	0.958852	0.33358
294	C	0.192546	0.985655	0.068983
295	C	0.170917	0.004237	0.058344
296	C	0.154548	0.964146	0.049777
297	H	0.194305	0.980888	0.104288
298	H	0.133681	0.946774	0.073056
299	H	0.152032	0.956571	0.014781
300	H	0.1779	0.520647	0.028423
301	H	0.159922	0.011125	0.086833
302	N	0.211789	0.930105	0.048752
303	H	0.188069	0.924119	0.058681
304	N	0.292157	0.567161	0.314386
305	H	0.315723	0.573505	0.302983
306	C	0.005076	0.730882	0.039671
307	C	0.031283	0.767557	0.033621
308	C	0.019899	0.787808	0.341755
309	N	0.486421	0.772781	0.324879
310	C	0.46206	0.73776	0.330681
311	N	0.472054	0.717997	0.022008
312	H	0.036792	0.81374	0.333487
313	C	0.010014	0.705973	0.068705
314	C	0.991497	0.665775	0.058011
315	C	0.031605	0.689533	0.049614
316	H	0.014685	0.712471	0.104024
317	H	0.048926	0.686037	0.072978
318	H	0.039276	0.694632	0.014649
319	H	0.47517	0.656368	0.028024
320	H	0.984543	0.647867	0.086485
321	N	0.065562	0.780799	0.048605
322	H	0.07155	0.763067	0.058529
323	N	0.428514	0.724106	0.314185
324	H	0.422165	0.741336	0.302828
325	C	0.128987	0.823318	0.720801
326	N	0.155934	0.857779	0.387148
327	C	0.190853	0.86667	0.3875
328	N	0.198372	0.839726	0.387161
329	C	0.172346	0.804803	0.38749
330	N	0.137885	0.797295	0.387128
331	C	0.218462	0.902407	0.383368
332	C	0.180477	0.777202	0.383301
333	C	0.09325	0.815177	0.383271
334	O	0.152404	0.743449	0.381032
335	O	0.087561	0.843243	0.381003
336	O	0.252219	0.908091	0.381132
337	C	0.366662	0.676945	0.640586
338	N	0.342506	0.641448	0.307708
339	C	0.306794	0.628996	0.30735
340	N	0.295453	0.65315	0.307719
341	C	0.318715	0.688857	0.307271
342	N	0.35421	0.700204	0.307634
343	C	0.282202	0.592514	0.313207
344	C	0.306848	0.713476	0.313046
345	C	0.403145	0.688801	0.313022
346	O	0.332328	0.748064	0.319652
347	O	0.412235	0.663315	0.319698
348	O	0.247621	0.583406	0.319877
349	C	0.26477	0.773307	0.37309
350	C	0.228096	0.762843	0.367031
351	C	0.207844	0.731211	0.675156
352	N	0.222868	0.71276	0.658275
353	C	0.257888	0.723419	0.664071
354	N	0.277651	0.753174	0.355401
355	H	0.181915	0.72218	0.666882
356	C	0.289691	0.803176	0.402083
357	C	0.329883	0.824851	0.391363
358	C	0.306117	0.841192	0.382952
359	H	0.283207	0.801374	0.437407
360	H	0.309622	0.862025	0.406295
361	H	0.301002	0.843737	0.347987
362	H	0.339279	0.817912	0.361381
363	H	0.347804	0.835829	0.419821
364	N	0.214851	0.783884	0.381992
365	H	0.232585	0.8076	0.391935
366	N	0.271543	0.703532	0.647565
367	H	0.25431	0.679947	0.636221
368	C	0.222437	0.990639	0.373336
369	C	0.232858	0.964405	0.36719
370	C	0.264493	0.975786	0.675322
371	N	0.282924	0.509255	0.658418
372	C	0.272285	0.533628	0.664261
373	N	0.242558	0.523649	0.355641
374	H	0.27345	0.958852	0.666915
375	C	0.192546	0.985655	0.402315
376	C	0.170917	0.004237	0.391676
377	C	0.154548	0.964146	0.383109
378	H	0.194305	0.980888	0.437623
379	H	0.133681	0.946774	0.406388
380	H	0.152032	0.956571	0.348113
381	H	0.1779	0.520647	0.361756
382	H	0.159922	0.011125	0.420167
383	N	0.211789	0.930105	0.382086
384	H	0.188069	0.924119	0.392014
385	N	0.292157	0.567161	0.647718
386	H	0.315723	0.573505	0.636318
387	C	0.005076	0.730882	0.373004
388	C	0.031283	0.767557	0.366955
389	C	0.019899	0.787808	0.67509
390	N	0.486421	0.772781	0.658212
391	C	0.46206	0.73776	0.664015
392	N	0.472054	0.717997	0.355342
393	H	0.036792	0.81374	0.666822
394	C	0.010014	0.705973	0.402036
395	C	0.991497	0.665775	0.391343
396	C	0.031605	0.689533	0.382946
397	H	0.014685	0.712471	0.437357
398	H	0.048926	0.686037	0.406312
399	H	0.039276	0.694632	0.347984
400	H	0.47517	0.656368	0.361357
401	H	0.984543	0.647867	0.419818
402	N	0.065562	0.780799	0.381939
403	H	0.07155	0.763067	0.391862
404	N	0.428514	0.724106	0.647519
405	H	0.422165	0.741336	0.636161
406	C	0.128987	0.823318	0.054136
407	N	0.155934	0.857779	0.720479
408	C	0.190853	0.86667	0.720831
409	N	0.198372	0.839726	0.720496
410	C	0.172346	0.804803	0.720821
411	N	0.137885	0.797295	0.720459
412	C	0.218462	0.902407	0.716699
413	C	0.180477	0.777202	0.716636
414	C	0.09325	0.815177	0.716606
415	O	0.152404	0.743449	0.714367
416	O	0.087561	0.843243	0.714337
417	O	0.252219	0.908091	0.714467
418	C	0.366662	0.676945	0.973921
419	N	0.342506	0.641448	0.641041
420	C	0.306794	0.628996	0.640682
421	N	0.295453	0.65315	0.641051
422	C	0.318715	0.688857	0.640603
423	N	0.35421	0.700204	0.640968
424	C	0.282202	0.592514	0.646539
425	C	0.306848	0.713476	0.646379
426	C	0.403145	0.688801	0.646356
427	O	0.332328	0.748064	0.652986
428	O	0.412235	0.663315	0.65303
429	O	0.247621	0.583406	0.653209
430	C	0.26477	0.773307	0.706421
431	C	0.228096	0.762843	0.700362
432	C	0.207844	0.731211	0.008488
433	N	0.222868	0.71276	0.991606
434	C	0.257888	0.723419	0.997406
435	N	0.277651	0.753174	0.688736
436	H	0.181915	0.72218	0.000215
437	C	0.289691	0.803176	0.735417
438	C	0.329883	0.824851	0.724695
439	C	0.306117	0.841192	0.716287
440	H	0.283207	0.801374	0.770742
441	H	0.309622	0.862025	0.739626
442	H	0.301002	0.843737	0.681318
443	H	0.339279	0.817912	0.694712
444	H	0.347804	0.835829	0.753153
445	N	0.214851	0.783884	0.715324
446	H	0.232585	0.8076	0.725266
447	N	0.271543	0.703532	0.980896
448	H	0.25431	0.679947	0.969556
449	C	0.222437	0.990639	0.70667
450	C	0.232858	0.964405	0.700525
451	C	0.264493	0.975786	0.008657
452	N	0.282924	0.509255	0.991749
453	C	0.272285	0.533628	0.997592
454	N	0.242558	0.523649	0.688972
455	H	0.27345	0.958852	0.000248
456	C	0.192546	0.985655	0.73565
457	C	0.170917	0.004237	0.72501
458	C	0.154548	0.964146	0.716443
459	H	0.194305	0.980888	0.770954
460	H	0.133681	0.946774	0.739722
461	H	0.152032	0.956571	0.681448
462	H	0.1779	0.520647	0.69509
463	H	0.159922	0.011125	0.753498
464	N	0.211789	0.930105	0.71542
465	H	0.188069	0.924119	0.725349
466	N	0.292157	0.567161	0.981053
467	H	0.315723	0.573505	0.969649
468	C	0.005076	0.730882	0.706338
469	C	0.031283	0.767557	0.700286
470	C	0.019899	0.787808	0.008422
471	N	0.486421	0.772781	0.991546
472	C	0.46206	0.73776	0.997346
473	N	0.472054	0.717997	0.688673
474	H	0.036792	0.81374	0.000154
475	C	0.010014	0.705973	0.735371
476	C	0.991497	0.665775	0.724678
477	C	0.031605	0.689533	0.71628
478	H	0.014685	0.712471	0.770692
479	H	0.048926	0.686037	0.739646
480	H	0.039276	0.694632	0.681315
481	H	0.47517	0.656368	0.694692
482	H	0.984543	0.647867	0.753153
483	N	0.065562	0.780799	0.715271
484	H	0.07155	0.763067	0.725196
485	N	0.428514	0.724106	0.98085
486	H	0.422165	0.741336	0.969493
487	C	0.628985	0.323318	0.38747
488	N	0.655937	0.357781	0.053813
489	C	0.690854	0.36667	0.054166
490	N	0.698371	0.339725	0.053828
491	C	0.672348	0.304805	0.054156
492	N	0.637886	0.297295	0.053793
493	C	0.718463	0.402407	0.050033
494	C	0.680476	0.277201	0.04997
495	C	0.593251	0.315177	0.049939
496	O	0.652404	0.243448	0.047701
497	O	0.587562	0.343243	0.047669
498	O	0.75222	0.408091	0.0478
499	C	0.866662	0.176945	0.307253
500	N	0.842506	0.141449	0.974376
501	C	0.806793	0.128996	0.974017
502	N	0.795453	0.153149	0.974386
503	C	0.818713	0.188857	0.973937
504	N	0.85421	0.200205	0.974299
505	C	0.782202	0.092515	0.979873
506	C	0.806848	0.213475	0.979714
507	C	0.903144	0.188802	0.979687
508	O	0.832328	0.248063	0.986318
509	O	0.912235	0.163316	0.986364
510	O	0.747622	0.083406	0.986543
511	C	0.764769	0.273307	0.039756
512	C	0.728097	0.262843	0.033696
513	C	0.707844	0.231211	0.341822
514	N	0.722867	0.21276	0.324941
515	C	0.757888	0.22342	0.330738
516	N	0.77765	0.253173	0.022069
517	H	0.681914	0.222179	0.333547
518	C	0.789691	0.303176	0.068751
519	C	0.829886	0.324853	0.058029
520	C	0.806119	0.341194	0.049619
521	H	0.783206	0.301373	0.104074
522	H	0.809623	0.362025	0.072961
523	H	0.801002	0.343737	0.014652
524	H	0.839278	0.317912	0.028046
525	H	0.847804	0.335828	0.086488
526	N	0.71485	0.283884	0.048658
527	H	0.732583	0.307599	0.0586
528	N	0.771542	0.203532	0.31423
529	H	0.75431	0.179947	0.302888
530	C	0.722438	0.490639	0.040003
531	C	0.732856	0.464405	0.033858
532	C	0.764494	0.475788	0.341991
533	N	0.782926	0.009256	0.325083
534	C	0.772286	0.033628	0.330927
535	N	0.742558	0.023649	0.022306
536	H	0.773451	0.458852	0.33358
537	C	0.692547	0.485655	0.068983
538	C	0.670916	0.504237	0.058343
539	C	0.654546	0.464146	0.049776
540	H	0.694303	0.480887	0.104288
541	H	0.633682	0.446774	0.073056
542	H	0.652033	0.456571	0.014781
543	H	0.6779	0.020646	0.028423
544	H	0.659922	0.511125	0.086833
545	N	0.711788	0.430105	0.048752
546	H	0.68807	0.424119	0.058681
547	N	0.792157	0.067161	0.314386
548	H	0.815723	0.073505	0.302983
549	C	0.505075	0.230882	0.039671
550	C	0.531284	0.267556	0.033621
551	C	0.519897	0.287807	0.341755
552	N	0.98642	0.272781	0.324879
553	C	0.962061	0.23776	0.330681
554	N	0.972054	0.217998	0.022008
555	H	0.536793	0.31374	0.333487
556	C	0.510015	0.205973	0.068705
557	C	0.491496	0.165775	0.058011
558	C	0.531607	0.189534	0.049614
559	H	0.514687	0.212472	0.104024
560	H	0.548925	0.186037	0.072978
561	H	0.539275	0.194633	0.014649
562	H	0.97517	0.156369	0.028024
563	H	0.484543	0.147867	0.086485
564	N	0.565564	0.280802	0.048605
565	H	0.571551	0.263067	0.058529
566	N	0.928512	0.224105	0.314185
567	H	0.922165	0.241336	0.302828
568	C	0.628985	0.323318	0.720801
569	N	0.655937	0.357781	0.387148
570	C	0.690854	0.36667	0.3875
571	N	0.698371	0.339725	0.387161
572	C	0.672348	0.304805	0.38749
573	N	0.637886	0.297295	0.387128
574	C	0.718463	0.402407	0.383368
575	C	0.680476	0.277201	0.383301
576	C	0.593251	0.315177	0.383271
577	O	0.652404	0.243448	0.381032
578	O	0.587562	0.343243	0.381003
579	O	0.75222	0.408091	0.381132
580	C	0.866662	0.176945	0.640586
581	N	0.842506	0.141449	0.307708
582	C	0.806793	0.128996	0.30735
583	N	0.795453	0.153149	0.307719
584	C	0.818713	0.188857	0.307271
585	N	0.85421	0.200205	0.307634
586	C	0.782202	0.092515	0.313207
587	C	0.806848	0.213475	0.313046
588	C	0.903144	0.188802	0.313022
589	O	0.832328	0.248063	0.319652
590	O	0.912235	0.163316	0.319698
591	O	0.747622	0.083406	0.319877
592	C	0.764769	0.273307	0.37309
593	C	0.728097	0.262843	0.367031
594	C	0.707844	0.231211	0.675156
595	N	0.722867	0.21276	0.658275
596	C	0.757888	0.22342	0.664071
597	N	0.77765	0.253173	0.355401
598	H	0.681914	0.222179	0.666882
599	C	0.789691	0.303176	0.402083
600	C	0.829886	0.324853	0.391363
601	C	0.806119	0.341194	0.382952
602	H	0.783206	0.301373	0.437407
603	H	0.809623	0.362025	0.406295
604	H	0.801002	0.343737	0.347987
605	H	0.839278	0.317912	0.361381
606	H	0.847804	0.335828	0.419821
607	N	0.71485	0.283884	0.381992
608	H	0.732583	0.307599	0.391935
609	N	0.771542	0.203532	0.647565
610	H	0.75431	0.179947	0.636221
611	C	0.722438	0.490639	0.373336
612	C	0.732856	0.464405	0.36719
613	C	0.764494	0.475788	0.675322
614	N	0.782926	0.009256	0.658418
615	C	0.772286	0.033628	0.664261
616	N	0.742558	0.023649	0.355641
617	H	0.773451	0.458852	0.666915
618	C	0.692547	0.485655	0.402315
619	C	0.670916	0.504237	0.391676
620	C	0.654546	0.464146	0.383109
621	H	0.694303	0.480887	0.437623
622	H	0.633682	0.446774	0.406388
623	H	0.652033	0.456571	0.348113
624	H	0.6779	0.020646	0.361756
625	H	0.659922	0.511125	0.420167
626	N	0.711788	0.430105	0.382086
627	H	0.68807	0.424119	0.392014
628	N	0.792157	0.067161	0.647718
629	H	0.815723	0.073505	0.636318
630	C	0.505075	0.230882	0.373004
631	C	0.531284	0.267556	0.366955
632	C	0.519897	0.287807	0.67509
633	N	0.98642	0.272781	0.658212
634	C	0.962061	0.23776	0.664015
635	N	0.972054	0.217998	0.355342
636	H	0.536793	0.31374	0.666822
637	C	0.510015	0.205973	0.402036
638	C	0.491496	0.165775	0.391343
639	C	0.531607	0.189534	0.382946
640	H	0.514687	0.212472	0.437357
641	H	0.548925	0.186037	0.406312
642	H	0.539275	0.194633	0.347984
643	H	0.97517	0.156369	0.361357
644	H	0.484543	0.147867	0.419818
645	N	0.565564	0.280802	0.381939
646	H	0.571551	0.263067	0.391862
647	N	0.928512	0.224105	0.647519
648	H	0.922165	0.241336	0.636161
649	C	0.628985	0.323318	0.054135
650	N	0.655937	0.357781	0.720479
651	C	0.690854	0.36667	0.720831
652	N	0.698371	0.339725	0.720496
653	C	0.672348	0.304805	0.720821
654	N	0.637886	0.297295	0.720459
655	C	0.718463	0.402407	0.716699
656	C	0.680476	0.277201	0.716636
657	C	0.593251	0.315177	0.716606
658	O	0.652404	0.243448	0.714367
659	O	0.587562	0.343243	0.714337
660	O	0.75222	0.408091	0.714467
661	C	0.866662	0.176945	0.973921
662	N	0.842506	0.141449	0.641041
663	C	0.806793	0.128996	0.640682
664	N	0.795453	0.153149	0.641051
665	C	0.818713	0.188857	0.640603
666	N	0.85421	0.200205	0.640968
667	C	0.782202	0.092515	0.646539
668	C	0.806848	0.213475	0.646379
669	C	0.903144	0.188802	0.646356
670	O	0.832328	0.248063	0.652986
671	O	0.912235	0.163316	0.65303
672	O	0.747622	0.083406	0.653209
673	C	0.764769	0.273307	0.706421
674	C	0.728097	0.262843	0.700362
675	C	0.707844	0.231211	0.008488
676	N	0.722867	0.21276	0.991606
677	C	0.757888	0.22342	0.997406
678	N	0.77765	0.253173	0.688736
679	H	0.681914	0.222179	0.000215
680	C	0.789691	0.303176	0.735417
681	C	0.829886	0.324853	0.724695
682	C	0.806119	0.341194	0.716287
683	H	0.783206	0.301373	0.770742
684	H	0.809623	0.362025	0.739626
685	H	0.801002	0.343737	0.681318
686	H	0.839278	0.317912	0.694712
687	H	0.847804	0.335828	0.753153
688	N	0.71485	0.283884	0.715324
689	H	0.732583	0.307599	0.725266
690	N	0.771542	0.203532	0.980896
691	H	0.75431	0.179947	0.969556
692	C	0.722438	0.490639	0.70667
693	C	0.732856	0.464405	0.700525
694	C	0.764494	0.475788	0.008657
695	N	0.782926	0.009256	0.991749
696	C	0.772286	0.033628	0.997592
697	N	0.742558	0.023649	0.688972
698	H	0.773451	0.458852	0.000248
699	C	0.692547	0.485655	0.73565
700	C	0.670916	0.504237	0.72501
701	C	0.654546	0.464146	0.716443
702	H	0.694303	0.480887	0.770954
703	H	0.633682	0.446774	0.739722
704	H	0.652033	0.456571	0.681448
705	H	0.6779	0.020646	0.69509
706	H	0.659922	0.511125	0.753498
707	N	0.711788	0.430105	0.71542
708	H	0.68807	0.424119	0.725349
709	N	0.792157	0.067161	0.981053
710	H	0.815723	0.073505	0.969649
711	C	0.505075	0.230882	0.706338
712	C	0.531284	0.267556	0.700286
713	C	0.519897	0.287807	0.008422
714	N	0.98642	0.272781	0.991546
715	C	0.962061	0.23776	0.997346
716	N	0.972054	0.217998	0.688673
717	H	0.536793	0.31374	0.000154
718	C	0.510015	0.205973	0.735371
719	C	0.491496	0.165775	0.724678
720	C	0.531607	0.189534	0.71628
721	H	0.514687	0.212472	0.770692
722	H	0.548925	0.186037	0.739646
723	H	0.539275	0.194633	0.681315
724	H	0.97517	0.156369	0.694692
725	H	0.484543	0.147867	0.753153
726	N	0.565564	0.280802	0.715271
727	H	0.571551	0.263067	0.725196
728	N	0.928512	0.224105	0.98085
729	H	0.922165	0.241336	0.969493
730	C	0.628987	0.823318	0.38747
731	N	0.655935	0.857779	0.053813
732	C	0.690854	0.86667	0.054166
733	N	0.698371	0.839726	0.053828
734	C	0.672347	0.804803	0.054156
735	N	0.637886	0.797295	0.053793
736	C	0.718463	0.902407	0.050033
737	C	0.680476	0.777202	0.04997
738	C	0.593251	0.815177	0.049939
739	O	0.652405	0.743449	0.047701
740	O	0.587562	0.843243	0.047669
741	O	0.75222	0.908091	0.0478
742	C	0.866662	0.676945	0.307253
743	N	0.842506	0.641448	0.974376
744	C	0.806795	0.628996	0.974017
745	N	0.795454	0.65315	0.974386
746	C	0.818716	0.688857	0.973937
747	N	0.854212	0.700204	0.974299
748	C	0.782202	0.592514	0.979873
749	C	0.806848	0.713476	0.979714
750	C	0.903144	0.688801	0.979687
751	O	0.832329	0.748064	0.986318
752	O	0.912234	0.663315	0.986364
753	O	0.747622	0.583406	0.986543
754	C	0.764769	0.773307	0.039756
755	C	0.728097	0.762843	0.033696
756	C	0.707844	0.731211	0.341822
757	N	0.722867	0.71276	0.324941
758	C	0.757888	0.723419	0.330738
759	N	0.77765	0.753174	0.022069
760	H	0.681914	0.72218	0.333547
761	C	0.789691	0.803176	0.068751
762	C	0.829884	0.824851	0.058029
763	C	0.806118	0.841192	0.049619
764	H	0.783206	0.801374	0.104074
765	H	0.809623	0.862025	0.072961
766	H	0.801002	0.843737	0.014652
767	H	0.839278	0.817912	0.028046
768	H	0.847804	0.835829	0.086488
769	N	0.714853	0.783884	0.048658
770	H	0.732586	0.8076	0.0586
771	N	0.771542	0.703532	0.31423
772	H	0.75431	0.679947	0.302888
773	C	0.722438	0.990639	0.040003
774	C	0.732857	0.964405	0.033858
775	C	0.764493	0.975786	0.341991
776	N	0.782926	0.509255	0.325083
777	C	0.772286	0.533628	0.330927
778	N	0.742558	0.523649	0.022306
779	H	0.773451	0.958852	0.33358
780	C	0.692547	0.985655	0.068983
781	C	0.670916	0.004237	0.058344
782	C	0.654547	0.964146	0.049777
783	H	0.694305	0.980888	0.104288
784	H	0.633681	0.946774	0.073056
785	H	0.652034	0.956571	0.014781
786	H	0.6779	0.520647	0.028423
787	H	0.659922	0.011125	0.086833
788	N	0.711788	0.930105	0.048752
789	H	0.688069	0.924119	0.058681
790	N	0.792157	0.567161	0.314386
791	H	0.815724	0.573505	0.302983
792	C	0.505076	0.730882	0.039671
793	C	0.531284	0.767557	0.033621
794	C	0.519898	0.787808	0.341755
795	N	0.986421	0.772781	0.324879
796	C	0.962061	0.73776	0.330681
797	N	0.972054	0.717997	0.022008
798	H	0.536794	0.81374	0.333487
799	C	0.510014	0.705973	0.068705
800	C	0.491497	0.665775	0.058011
801	C	0.531607	0.689533	0.049614
802	H	0.514686	0.712471	0.104024
803	H	0.548926	0.686037	0.072978
804	H	0.539276	0.694632	0.014649
805	H	0.97517	0.656368	0.028024
806	H	0.484542	0.647867	0.086485
807	N	0.565563	0.780799	0.048605
808	H	0.571551	0.763067	0.058529
809	N	0.928515	0.724106	0.314185
810	H	0.922164	0.741336	0.302828
811	C	0.628987	0.823318	0.720801
812	N	0.655935	0.857779	0.387148
813	C	0.690854	0.86667	0.3875
814	N	0.698371	0.839726	0.387161
815	C	0.672347	0.804803	0.38749
816	N	0.637886	0.797295	0.387128
817	C	0.718463	0.902407	0.383368
818	C	0.680476	0.777202	0.383301
819	C	0.593251	0.815177	0.383271
820	O	0.652405	0.743449	0.381032
821	O	0.587562	0.843243	0.381003
822	O	0.75222	0.908091	0.381132
823	C	0.866662	0.676945	0.640586
824	N	0.842506	0.641448	0.307708
825	C	0.806795	0.628996	0.30735
826	N	0.795454	0.65315	0.307719
827	C	0.818716	0.688857	0.307271
828	N	0.854212	0.700204	0.307634
829	C	0.782202	0.592514	0.313207
830	C	0.806848	0.713476	0.313046
831	C	0.903144	0.688801	0.313022
832	O	0.832329	0.748064	0.319652
833	O	0.912234	0.663315	0.319698
834	O	0.747622	0.583406	0.319877
835	C	0.764769	0.773307	0.37309
836	C	0.728097	0.762843	0.367031
837	C	0.707844	0.731211	0.675156
838	N	0.722867	0.71276	0.658275
839	C	0.757888	0.723419	0.664071
840	N	0.77765	0.753174	0.355401
841	H	0.681914	0.72218	0.666882
842	C	0.789691	0.803176	0.402083
843	C	0.829884	0.824851	0.391363
844	C	0.806118	0.841192	0.382952
845	H	0.783206	0.801374	0.437407
846	H	0.809623	0.862025	0.406295
847	H	0.801002	0.843737	0.347987
848	H	0.839278	0.817912	0.361381
849	H	0.847804	0.835829	0.419821
850	N	0.714853	0.783884	0.381992
851	H	0.732586	0.8076	0.391935
852	N	0.771542	0.703532	0.647565
853	H	0.75431	0.679947	0.636221
854	C	0.722438	0.990639	0.373336
855	C	0.732857	0.964405	0.36719
856	C	0.764493	0.975786	0.675322
857	N	0.782926	0.509255	0.658418
858	C	0.772286	0.533628	0.664261
859	N	0.742558	0.523649	0.355641
860	H	0.773451	0.958852	0.666915
861	C	0.692547	0.985655	0.402315
862	C	0.670916	0.004237	0.391676
863	C	0.654547	0.964146	0.383109
864	H	0.694305	0.980888	0.437623
865	H	0.633681	0.946774	0.406388
866	H	0.652034	0.956571	0.348113
867	H	0.6779	0.520647	0.361756
868	H	0.659922	0.011125	0.420167
869	N	0.711788	0.930105	0.382086
870	H	0.688069	0.924119	0.392014
871	N	0.792157	0.567161	0.647718
872	H	0.815724	0.573505	0.636318
873	C	0.505076	0.730882	0.373004
874	C	0.531284	0.767557	0.366955
875	C	0.519898	0.787808	0.67509
876	N	0.986421	0.772781	0.658212
877	C	0.962061	0.73776	0.664015
878	N	0.972054	0.717997	0.355342
879	H	0.536794	0.81374	0.666822
880	C	0.510014	0.705973	0.402036
881	C	0.491497	0.665775	0.391343
882	C	0.531607	0.689533	0.382946
883	H	0.514686	0.712471	0.437357
884	H	0.548926	0.686037	0.406312
885	H	0.539276	0.694632	0.347984
886	H	0.97517	0.656368	0.361357
887	H	0.484542	0.647867	0.419818
888	N	0.565563	0.780799	0.381939
889	H	0.571551	0.763067	0.391862
890	N	0.928515	0.724106	0.647519
891	H	0.922164	0.741336	0.636161
892	C	0.628987	0.823318	0.054136
893	N	0.655935	0.857779	0.720479
894	C	0.690854	0.86667	0.720831
895	N	0.698371	0.839726	0.720496
896	C	0.672347	0.804803	0.720821
897	N	0.637886	0.797295	0.720459
898	C	0.718463	0.902407	0.716699
899	C	0.680476	0.777202	0.716636
900	C	0.593251	0.815177	0.716606
901	O	0.652405	0.743449	0.714367
902	O	0.587562	0.843243	0.714337
903	O	0.75222	0.908091	0.714467
904	C	0.866662	0.676945	0.973921
905	N	0.842506	0.641448	0.641041
906	C	0.806795	0.628996	0.640682
907	N	0.795454	0.65315	0.641051
908	C	0.818716	0.688857	0.640603
909	N	0.854212	0.700204	0.640968
910	C	0.782202	0.592514	0.646539
911	C	0.806848	0.713476	0.646379
912	C	0.903144	0.688801	0.646356
913	O	0.832329	0.748064	0.652986
914	O	0.912234	0.663315	0.65303
915	O	0.747622	0.583406	0.653209
916	C	0.764769	0.773307	0.706421
917	C	0.728097	0.762843	0.700362
918	C	0.707844	0.731211	0.008488
919	N	0.722867	0.71276	0.991606
920	C	0.757888	0.723419	0.997406
921	N	0.77765	0.753174	0.688736
922	H	0.681914	0.72218	0.000215
923	C	0.789691	0.803176	0.735417
924	C	0.829884	0.824851	0.724695
925	C	0.806118	0.841192	0.716287
926	H	0.783206	0.801374	0.770742
927	H	0.809623	0.862025	0.739626
928	H	0.801002	0.843737	0.681318
929	H	0.839278	0.817912	0.694712
930	H	0.847804	0.835829	0.753153
931	N	0.714853	0.783884	0.715324
932	H	0.732586	0.8076	0.725266
933	N	0.771542	0.703532	0.980896
934	H	0.75431	0.679947	0.969556
935	C	0.722438	0.990639	0.70667
936	C	0.732857	0.964405	0.700525
937	C	0.764493	0.975786	0.008657
938	N	0.782926	0.509255	0.991749
939	C	0.772286	0.533628	0.997592
940	N	0.742558	0.523649	0.688972
941	H	0.773451	0.958852	0.000248
942	C	0.692547	0.985655	0.73565
943	C	0.670916	0.004237	0.72501
944	C	0.654547	0.964146	0.716443
945	H	0.694305	0.980888	0.770954
946	H	0.633681	0.946774	0.739722
947	H	0.652034	0.956571	0.681448
948	H	0.6779	0.520647	0.69509
949	H	0.659922	0.011125	0.753498
950	N	0.711788	0.930105	0.71542
951	H	0.688069	0.924119	0.725349
952	N	0.792157	0.567161	0.981053
953	H	0.815724	0.573505	0.969649
954	C	0.505076	0.730882	0.706338
955	C	0.531284	0.767557	0.700286
956	C	0.519898	0.787808	0.008422
957	N	0.986421	0.772781	0.991546
958	C	0.962061	0.73776	0.997346
959	N	0.972054	0.717997	0.688673
960	H	0.536794	0.81374	0.000154
961	C	0.510014	0.705973	0.735371
962	C	0.491497	0.665775	0.724678
963	C	0.531607	0.689533	0.71628
964	H	0.514686	0.712471	0.770692
965	H	0.548926	0.686037	0.739646
966	H	0.539276	0.694632	0.681315
967	H	0.97517	0.656368	0.694692
968	H	0.484542	0.647867	0.753153
969	N	0.565563	0.780799	0.715271
970	H	0.571551	0.763067	0.725196
971	N	0.928515	0.724106	0.98085
972	H	0.922164	0.741336	0.969493
