data_C648H396N36O72_2018-02-15_10:39:10
#******************************************
#
# CIF file created by Zeo++
# Zeo++ is an open source package to
# analyze microporous materials
#
#*******************************************

_cell_length_a		44.6218   
_cell_length_b		44.6218   
_cell_length_c		29.7998   
_cell_angle_alpha		90   
_cell_angle_beta		90   
_cell_angle_gamma		120   

_symmetry_space_group_name_H-M		'P1'
_symmetry_Int_Tables_number		1
_symmetry_cell_setting		Monoclinic

loop_
_symmetry_equiv_pos_as_xyz
'+x,+y,+z'

loop_
_atom_site_label
_atom_site_type_symbol
_atom_site_fract_x
_atom_site_fract_y
_atom_site_fract_z
1	C	0.044486	0.271375	0.051322
2	C	0.024141	0.26238	0.011341
3	C	0.041799	0.274941	0.30291
4	C	0.02151	0.269828	0.261003
5	H	0.036904	0.288793	0.235266
6	H	0.013502	0.244062	0.247648
7	N	0.028697	0.265032	0.094193
8	O	0.036487	0.246844	0.11839
9	C	0.044486	0.271375	0.384654
10	C	0.024141	0.26238	0.344674
11	C	0.041799	0.274941	0.636243
12	C	0.02151	0.269828	0.594337
13	H	0.036904	0.288793	0.568598
14	H	0.013502	0.244062	0.580981
15	N	0.028697	0.265032	0.427527
16	O	0.036487	0.246844	0.451721
17	C	0.044486	0.271375	0.717989
18	C	0.024141	0.26238	0.678008
19	C	0.041799	0.274941	0.969574
20	C	0.02151	0.269828	0.927668
21	H	0.036904	0.288793	0.901933
22	H	0.013502	0.244062	0.914316
23	N	0.028697	0.265032	0.760858
24	O	0.036487	0.246844	0.785056
25	C	0.044487	0.771376	0.051322
26	C	0.024141	0.762381	0.011341
27	C	0.041798	0.774939	0.30291
28	C	0.021511	0.769828	0.261003
29	H	0.036906	0.788794	0.235266
30	H	0.013502	0.744062	0.247648
31	N	0.028698	0.765033	0.094193
32	O	0.036488	0.746844	0.11839
33	C	0.044487	0.771376	0.384654
34	C	0.024141	0.762381	0.344674
35	C	0.041798	0.774939	0.636243
36	C	0.021511	0.769828	0.594337
37	H	0.036906	0.788794	0.568598
38	H	0.013502	0.744062	0.580981
39	N	0.028698	0.765033	0.427527
40	O	0.036488	0.746844	0.451721
41	C	0.044487	0.771376	0.717989
42	C	0.024141	0.762381	0.678008
43	C	0.041798	0.774939	0.969574
44	C	0.021511	0.769828	0.927668
45	H	0.036906	0.788794	0.901933
46	H	0.013502	0.744062	0.914316
47	N	0.028698	0.765033	0.760858
48	O	0.036488	0.746844	0.785056
49	O	0.036704	0.292675	0.114658
50	O	0.036704	0.292675	0.44799
51	O	0.036704	0.292675	0.781325
52	O	0.036704	0.792675	0.114658
53	O	0.036704	0.792675	0.44799
54	O	0.036704	0.792675	0.781325
55	C	0.098298	0.299791	0.0069
56	C	0.081112	0.289352	0.048451
57	C	0.078364	0.293058	0.301009
58	H	0.090628	0.301491	0.270736
59	H	0.095414	0.295677	0.077375
60	C	0.098298	0.299791	0.340234
61	C	0.081112	0.289352	0.381785
62	C	0.078364	0.293058	0.63434
63	H	0.090628	0.301491	0.604068
64	H	0.095414	0.295677	0.410708
65	C	0.098298	0.299791	0.673565
66	C	0.081112	0.289352	0.715116
67	C	0.078364	0.293058	0.967675
68	H	0.090628	0.301491	0.937403
69	H	0.095414	0.295677	0.744042
70	C	0.098299	0.799792	0.0069
71	C	0.081111	0.78935	0.048451
72	C	0.078364	0.793058	0.301009
73	H	0.090628	0.801492	0.270736
74	H	0.095415	0.795677	0.077375
75	C	0.098299	0.799792	0.340234
76	C	0.081111	0.78935	0.381785
77	C	0.078364	0.793058	0.63434
78	H	0.090628	0.801492	0.604068
79	H	0.095415	0.795677	0.410708
80	C	0.098299	0.799792	0.673565
81	C	0.081111	0.78935	0.715116
82	C	0.078364	0.793058	0.967675
83	H	0.090628	0.801492	0.937403
84	H	0.095415	0.795677	0.744042
85	C	0.134973	0.318257	0.005065
86	C	0.153421	0.354838	0.005166
87	C	0.153558	0.300265	0.00513
88	H	0.140351	0.273738	0.005811
89	H	0.140102	0.368046	0.005839
90	C	0.134973	0.318257	0.338398
91	C	0.153421	0.354838	0.338499
92	C	0.153558	0.300265	0.338462
93	H	0.140351	0.273738	0.339143
94	H	0.140102	0.368046	0.33917
95	C	0.134973	0.318257	0.67173
96	C	0.153421	0.354838	0.671831
97	C	0.153558	0.300265	0.671797
98	H	0.140351	0.273738	0.672478
99	H	0.140102	0.368046	0.672505
100	C	0.134974	0.818258	0.005065
101	C	0.153423	0.854838	0.005165
102	C	0.153558	0.800265	0.00513
103	H	0.140351	0.773738	0.005811
104	H	0.140102	0.868046	0.005839
105	C	0.134974	0.818258	0.338398
106	C	0.153423	0.854838	0.338499
107	C	0.153558	0.800265	0.338462
108	H	0.140351	0.773738	0.339143
109	H	0.140102	0.868046	0.33917
110	C	0.134974	0.818258	0.67173
111	C	0.153423	0.854838	0.671831
112	C	0.153558	0.800265	0.671797
113	H	0.140351	0.773738	0.672478
114	H	0.140102	0.868046	0.672505
115	C	0.189999	0.373423	0.00507
116	C	0.20813	0.354975	0.005152
117	C	0.190139	0.318397	0.005048
118	H	0.234658	0.368294	0.005817
119	C	0.375278	0.188051	0.004891
120	C	0.356108	0.151436	0.004864
121	C	0.319488	0.133117	0.004904
122	C	0.302044	0.152286	0.004851
123	C	0.320343	0.188906	0.004892
124	C	0.356957	0.206351	0.004843
125	H	0.275524	0.139334	0.005332
126	H	0.370526	0.23287	0.005319
127	H	0.369059	0.137869	0.00533
128	C	0.208605	0.300187	0.006884
129	C	0.219065	0.293464	0.048435
130	C	0.237036	0.274809	0.051313
131	C	0.246038	0.263462	0.011335
132	C	0.233468	0.268547	0.302904
133	C	0.215338	0.286982	0.300997
134	H	0.206895	0.290801	0.270723
135	C	0.264614	0.244504	0.010902
136	C	0.291015	0.250626	0.042198
137	C	0.309288	0.232528	0.040188
138	C	0.302178	0.20766	0.006417
139	C	0.277152	0.202532	0.306999
140	C	0.259183	0.221193	0.308309
141	H	0.298459	0.269458	0.066
142	H	0.327798	0.237569	0.063941
143	H	0.272653	0.185702	0.281109
144	H	0.212725	0.301429	0.077358
145	C	0.235459	0.217808	0.271034
146	C	0.238581	0.253365	0.261004
147	H	0.208913	0.199272	0.280978
148	H	0.241222	0.208216	0.240344
149	H	0.219624	0.2498	0.235258
150	H	0.264351	0.271114	0.247657
151	N	0.243382	0.265371	0.094186
152	O	0.261572	0.291353	0.118377
153	O	0.215739	0.245739	0.114656
154	C	0.208207	0.410097	0.006902
155	C	0.214931	0.427282	0.048452
156	C	0.233592	0.463909	0.051329
157	C	0.244972	0.484254	0.011351
158	C	0.239864	0.4666	0.302917
159	C	0.221419	0.430033	0.301014
160	H	0.217595	0.417769	0.270741
161	C	0.263907	0.021788	0.010905
162	C	0.257782	0.042064	0.042207
163	C	0.275873	0.078435	0.040196
164	C	0.300735	0.096197	0.006423
165	C	0.305855	0.076304	0.306991
166	C	0.287218	0.039675	0.308316
167	H	0.238955	0.030674	0.066012
168	H	0.270834	0.091901	0.063956
169	H	0.322697	0.088639	0.281112
170	H	0.206959	0.41298	0.077376
171	C	0.290602	0.019335	0.27104
172	C	0.25505	0.486891	0.261015
173	H	0.309144	0.011333	0.280981
174	H	0.300188	0.034689	0.240348
175	H	0.258622	0.471496	0.23528
176	H	0.237297	0.494903	0.247656
177	N	0.243033	0.479687	0.094206
178	O	0.217053	0.471905	0.118393
179	O	0.262656	0.971665	0.114678
180	C	0.486607	0.243785	0.010887
181	C	0.466328	0.217373	0.042174
182	C	0.429958	0.199118	0.040191
183	C	0.412196	0.206215	0.006411
184	C	0.432092	0.231211	0.306962
185	C	0.468723	0.249203	0.30829
186	H	0.477719	0.209968	0.066019
187	H	0.416491	0.180623	0.063962
188	H	0.41976	0.235729	0.281093
189	C	0.489063	0.272933	0.271021
190	H	0.497061	0.299475	0.280967
191	H	0.473713	0.267167	0.240326
192	O	0.536705	0.292675	0.114658
193	C	0.189999	0.373423	0.338402
194	C	0.20813	0.354975	0.338486
195	C	0.190139	0.318397	0.338382
196	H	0.234658	0.368294	0.33915
197	C	0.375278	0.188051	0.338224
198	C	0.356108	0.151436	0.338197
199	C	0.319488	0.133117	0.338237
200	C	0.302044	0.152286	0.338184
201	C	0.320343	0.188906	0.338224
202	C	0.356957	0.206351	0.338177
203	H	0.275524	0.139334	0.338667
204	H	0.370526	0.23287	0.33865
205	H	0.369059	0.137869	0.338664
206	C	0.208605	0.300187	0.340217
207	C	0.219065	0.293464	0.381768
208	C	0.237036	0.274809	0.384647
209	C	0.246038	0.263462	0.344667
210	C	0.233468	0.268547	0.636236
211	C	0.215338	0.286982	0.63433
212	H	0.206895	0.290801	0.604055
213	C	0.264614	0.244504	0.344234
214	C	0.291015	0.250626	0.375533
215	C	0.309288	0.232528	0.37352
216	C	0.302178	0.20766	0.339751
217	C	0.277152	0.202532	0.64033
218	C	0.259183	0.221193	0.641642
219	H	0.298459	0.269458	0.399332
220	H	0.327798	0.237569	0.397275
221	H	0.272653	0.185702	0.614441
222	H	0.212725	0.301429	0.410691
223	C	0.235459	0.217808	0.604367
224	C	0.238581	0.253365	0.594337
225	H	0.208913	0.199272	0.61431
226	H	0.241222	0.208216	0.573679
227	H	0.219624	0.2498	0.568591
228	H	0.264351	0.271114	0.580991
229	N	0.243382	0.265371	0.42752
230	O	0.261572	0.291353	0.451711
231	O	0.215739	0.245739	0.44799
232	C	0.208207	0.410097	0.340234
233	C	0.214931	0.427282	0.381785
234	C	0.233592	0.463909	0.384661
235	C	0.244972	0.484254	0.344684
236	C	0.239864	0.4666	0.63625
237	C	0.221419	0.430033	0.634347
238	H	0.217595	0.417769	0.604075
239	C	0.263907	0.021788	0.344237
240	C	0.257782	0.042064	0.37554
241	C	0.275873	0.078435	0.37353
242	C	0.300735	0.096197	0.339758
243	C	0.305855	0.076304	0.640324
244	C	0.287218	0.039675	0.641649
245	H	0.238955	0.030674	0.399345
246	H	0.270834	0.091901	0.397288
247	H	0.322697	0.088639	0.614444
248	H	0.206959	0.41298	0.410708
249	C	0.290602	0.019335	0.604374
250	C	0.25505	0.486891	0.594347
251	H	0.309144	0.011333	0.614313
252	H	0.300188	0.034689	0.573682
253	H	0.258622	0.471496	0.568612
254	H	0.237297	0.494903	0.580988
255	N	0.243033	0.479687	0.42754
256	O	0.217053	0.471905	0.451728
257	O	0.262656	0.971665	0.44801
258	C	0.486607	0.243785	0.344221
259	C	0.466328	0.217373	0.375506
260	C	0.429958	0.199118	0.373523
261	C	0.412196	0.206215	0.339744
262	C	0.432092	0.231211	0.640297
263	C	0.468723	0.249203	0.641622
264	H	0.477719	0.209968	0.399352
265	H	0.416491	0.180623	0.397295
266	H	0.41976	0.235729	0.614427
267	C	0.489063	0.272933	0.604353
268	H	0.497061	0.299475	0.6143
269	H	0.473713	0.267167	0.573659
270	O	0.536705	0.292675	0.44799
271	C	0.189999	0.373423	0.671737
272	C	0.20813	0.354975	0.671817
273	C	0.190139	0.318397	0.671713
274	H	0.234658	0.368294	0.672485
275	C	0.375278	0.188051	0.671559
276	C	0.356108	0.151436	0.671532
277	C	0.319488	0.133117	0.671569
278	C	0.302044	0.152286	0.671518
279	C	0.320343	0.188906	0.671559
280	C	0.356957	0.206351	0.671508
281	H	0.275524	0.139334	0.671998
282	H	0.370526	0.23287	0.671985
283	H	0.369059	0.137869	0.671995
284	C	0.208605	0.300187	0.673549
285	C	0.219065	0.293464	0.715099
286	C	0.237036	0.274809	0.717979
287	C	0.246038	0.263462	0.678002
288	C	0.233468	0.268547	0.969571
289	C	0.215338	0.286982	0.967662
290	H	0.206895	0.290801	0.93739
291	C	0.264614	0.244504	0.677569
292	C	0.291015	0.250626	0.708864
293	C	0.309288	0.232528	0.706854
294	C	0.302178	0.20766	0.673082
295	C	0.277152	0.202532	0.973665
296	C	0.259183	0.221193	0.974977
297	H	0.298459	0.269458	0.732667
298	H	0.327798	0.237569	0.730606
299	H	0.272653	0.185702	0.947776
300	H	0.212725	0.301429	0.744026
301	C	0.235459	0.217808	0.937702
302	C	0.238581	0.253365	0.927671
303	H	0.208913	0.199272	0.947645
304	H	0.241222	0.208216	0.90701
305	H	0.219624	0.2498	0.901923
306	H	0.264351	0.271114	0.914322
307	N	0.243382	0.265371	0.760851
308	O	0.261572	0.291353	0.785043
309	O	0.215739	0.245739	0.781321
310	C	0.208207	0.410097	0.673569
311	C	0.214931	0.427282	0.715119
312	C	0.233592	0.463909	0.717995
313	C	0.244972	0.484254	0.678018
314	C	0.239864	0.4666	0.969584
315	C	0.221419	0.430033	0.967678
316	H	0.217595	0.417769	0.937406
317	C	0.263907	0.021788	0.677572
318	C	0.257782	0.042064	0.708874
319	C	0.275873	0.078435	0.706861
320	C	0.300735	0.096197	0.673089
321	C	0.305855	0.076304	0.973658
322	C	0.287218	0.039675	0.974984
323	H	0.238955	0.030674	0.73268
324	H	0.270834	0.091901	0.730623
325	H	0.322697	0.088639	0.947779
326	H	0.206959	0.41298	0.744042
327	C	0.290602	0.019335	0.937705
328	C	0.25505	0.486891	0.927681
329	H	0.309144	0.011333	0.947648
330	H	0.300188	0.034689	0.907013
331	H	0.258622	0.471496	0.901946
332	H	0.237297	0.494903	0.914322
333	N	0.243033	0.479687	0.760871
334	O	0.217053	0.471905	0.78506
335	O	0.262656	0.971665	0.781345
336	C	0.486607	0.243785	0.677552
337	C	0.466328	0.217373	0.708841
338	C	0.429958	0.199118	0.706858
339	C	0.412196	0.206215	0.673079
340	C	0.432092	0.231211	0.973628
341	C	0.468723	0.249203	0.974957
342	H	0.477719	0.209968	0.732683
343	H	0.416491	0.180623	0.730626
344	H	0.41976	0.235729	0.947759
345	C	0.489063	0.272933	0.937688
346	H	0.497061	0.299475	0.947631
347	H	0.473713	0.267167	0.906993
348	O	0.536705	0.292675	0.781325
349	C	0.189998	0.873424	0.00507
350	C	0.208131	0.854975	0.005152
351	C	0.190139	0.818395	0.005048
352	H	0.234658	0.868295	0.005817
353	C	0.375278	0.68805	0.004891
354	C	0.356108	0.651436	0.004864
355	C	0.319489	0.633117	0.004904
356	C	0.302044	0.652287	0.004851
357	C	0.320343	0.688906	0.004892
358	C	0.356958	0.70635	0.004843
359	H	0.275525	0.639335	0.005332
360	H	0.370526	0.73287	0.005319
361	H	0.369059	0.637868	0.00533
362	C	0.208605	0.800188	0.006884
363	C	0.219066	0.793465	0.048435
364	C	0.237036	0.774809	0.051313
365	C	0.246039	0.763462	0.011335
366	C	0.233469	0.768547	0.302904
367	C	0.215339	0.786982	0.300997
368	H	0.206896	0.790802	0.270723
369	C	0.264615	0.744504	0.010902
370	C	0.291016	0.750627	0.042198
371	C	0.309288	0.732528	0.040188
372	C	0.302178	0.70766	0.006417
373	C	0.277152	0.702531	0.306999
374	C	0.259184	0.721194	0.308309
375	H	0.29846	0.769458	0.066
376	H	0.327799	0.737569	0.063941
377	H	0.272654	0.685703	0.281109
378	H	0.212726	0.80143	0.077358
379	C	0.235458	0.717806	0.271034
380	C	0.238581	0.753365	0.261004
381	H	0.208914	0.699273	0.280978
382	H	0.241222	0.708216	0.240344
383	H	0.219624	0.749801	0.235258
384	H	0.264352	0.771114	0.247657
385	N	0.243382	0.765372	0.094186
386	O	0.261572	0.791353	0.118377
387	O	0.21574	0.745739	0.114656
388	C	0.208207	0.910097	0.006902
389	C	0.214931	0.927282	0.048452
390	C	0.233592	0.96391	0.051329
391	C	0.244972	0.984254	0.011351
392	C	0.239862	0.966598	0.302917
393	C	0.22142	0.930033	0.301014
394	H	0.217595	0.91777	0.270741
395	C	0.263907	0.521789	0.010905
396	C	0.257783	0.542064	0.042207
397	C	0.275874	0.578435	0.040196
398	C	0.300737	0.596198	0.006423
399	C	0.305856	0.576303	0.306991
400	C	0.287219	0.539676	0.308316
401	H	0.238955	0.530673	0.066012
402	H	0.270835	0.591902	0.063956
403	H	0.322697	0.588639	0.281112
404	H	0.206959	0.91298	0.077376
405	C	0.290603	0.519336	0.27104
406	C	0.255051	0.986891	0.261015
407	H	0.309146	0.511335	0.280981
408	H	0.300188	0.534689	0.240348
409	H	0.258624	0.971497	0.23528
410	H	0.237298	0.994903	0.247656
411	N	0.243034	0.979687	0.094206
412	O	0.217053	0.971906	0.118393
413	O	0.262656	0.471665	0.114678
414	C	0.486607	0.743785	0.010887
415	C	0.466329	0.717374	0.042174
416	C	0.429958	0.699118	0.040191
417	C	0.412197	0.706216	0.006411
418	C	0.432092	0.731211	0.306962
419	C	0.468722	0.749204	0.30829
420	H	0.47772	0.709968	0.066019
421	H	0.416491	0.680623	0.063962
422	H	0.419759	0.735729	0.281093
423	C	0.489063	0.772933	0.271021
424	H	0.497061	0.799476	0.280967
425	H	0.473713	0.767168	0.240326
426	O	0.536704	0.792675	0.114658
427	C	0.189998	0.873424	0.338402
428	C	0.208131	0.854975	0.338486
429	C	0.190139	0.818395	0.338382
430	H	0.234658	0.868295	0.33915
431	C	0.375278	0.68805	0.338224
432	C	0.356108	0.651436	0.338197
433	C	0.319489	0.633117	0.338237
434	C	0.302044	0.652287	0.338184
435	C	0.320343	0.688906	0.338224
436	C	0.356958	0.70635	0.338177
437	H	0.275525	0.639335	0.338667
438	H	0.370526	0.73287	0.33865
439	H	0.369059	0.637868	0.338664
440	C	0.208605	0.800188	0.340217
441	C	0.219066	0.793465	0.381768
442	C	0.237036	0.774809	0.384647
443	C	0.246039	0.763462	0.344667
444	C	0.233469	0.768547	0.636236
445	C	0.215339	0.786982	0.63433
446	H	0.206896	0.790802	0.604055
447	C	0.264615	0.744504	0.344234
448	C	0.291016	0.750627	0.375533
449	C	0.309288	0.732528	0.37352
450	C	0.302178	0.70766	0.339751
451	C	0.277152	0.702531	0.64033
452	C	0.259184	0.721194	0.641642
453	H	0.29846	0.769458	0.399332
454	H	0.327799	0.737569	0.397275
455	H	0.272654	0.685703	0.614441
456	H	0.212726	0.80143	0.410691
457	C	0.235458	0.717806	0.604367
458	C	0.238581	0.753365	0.594337
459	H	0.208914	0.699273	0.61431
460	H	0.241222	0.708216	0.573679
461	H	0.219624	0.749801	0.568591
462	H	0.264352	0.771114	0.580991
463	N	0.243382	0.765372	0.42752
464	O	0.261572	0.791353	0.451711
465	O	0.21574	0.745739	0.44799
466	C	0.208207	0.910097	0.340234
467	C	0.214931	0.927282	0.381785
468	C	0.233592	0.96391	0.384661
469	C	0.244972	0.984254	0.344684
470	C	0.239862	0.966598	0.63625
471	C	0.22142	0.930033	0.634347
472	H	0.217595	0.91777	0.604075
473	C	0.263907	0.521789	0.344237
474	C	0.257783	0.542064	0.37554
475	C	0.275874	0.578435	0.37353
476	C	0.300737	0.596198	0.339758
477	C	0.305856	0.576303	0.640324
478	C	0.287219	0.539676	0.641649
479	H	0.238955	0.530673	0.399345
480	H	0.270835	0.591902	0.397288
481	H	0.322697	0.588639	0.614444
482	H	0.206959	0.91298	0.410708
483	C	0.290603	0.519336	0.604374
484	C	0.255051	0.986891	0.594347
485	H	0.309146	0.511335	0.614313
486	H	0.300188	0.534689	0.573682
487	H	0.258624	0.971497	0.568612
488	H	0.237298	0.994903	0.580988
489	N	0.243034	0.979687	0.42754
490	O	0.217053	0.971906	0.451728
491	O	0.262656	0.471665	0.44801
492	C	0.486607	0.743785	0.344221
493	C	0.466329	0.717374	0.375506
494	C	0.429958	0.699118	0.373523
495	C	0.412197	0.706216	0.339744
496	C	0.432092	0.731211	0.640297
497	C	0.468722	0.749204	0.641622
498	H	0.47772	0.709968	0.399352
499	H	0.416491	0.680623	0.397295
500	H	0.419759	0.735729	0.614427
501	C	0.489063	0.772933	0.604353
502	H	0.497061	0.799476	0.6143
503	H	0.473713	0.767168	0.573659
504	O	0.536704	0.792675	0.44799
505	C	0.189998	0.873424	0.671737
506	C	0.208131	0.854975	0.671817
507	C	0.190139	0.818395	0.671713
508	H	0.234658	0.868295	0.672485
509	C	0.375278	0.68805	0.671559
510	C	0.356108	0.651436	0.671532
511	C	0.319489	0.633117	0.671569
512	C	0.302044	0.652287	0.671518
513	C	0.320343	0.688906	0.671559
514	C	0.356958	0.70635	0.671508
515	H	0.275525	0.639335	0.671998
516	H	0.370526	0.73287	0.671985
517	H	0.369059	0.637868	0.671995
518	C	0.208605	0.800188	0.673549
519	C	0.219066	0.793465	0.715099
520	C	0.237036	0.774809	0.717979
521	C	0.246039	0.763462	0.678002
522	C	0.233469	0.768547	0.969571
523	C	0.215339	0.786982	0.967662
524	H	0.206896	0.790802	0.93739
525	C	0.264615	0.744504	0.677569
526	C	0.291016	0.750627	0.708864
527	C	0.309288	0.732528	0.706854
528	C	0.302178	0.70766	0.673082
529	C	0.277152	0.702531	0.973665
530	C	0.259184	0.721194	0.974977
531	H	0.29846	0.769458	0.732667
532	H	0.327799	0.737569	0.730606
533	H	0.272654	0.685703	0.947776
534	H	0.212726	0.80143	0.744026
535	C	0.235458	0.717806	0.937702
536	C	0.238581	0.753365	0.927671
537	H	0.208914	0.699273	0.947645
538	H	0.241222	0.708216	0.90701
539	H	0.219624	0.749801	0.901923
540	H	0.264352	0.771114	0.914322
541	N	0.243382	0.765372	0.760851
542	O	0.261572	0.791353	0.785043
543	O	0.21574	0.745739	0.781321
544	C	0.208207	0.910097	0.673569
545	C	0.214931	0.927282	0.715119
546	C	0.233592	0.96391	0.717995
547	C	0.244972	0.984254	0.678018
548	C	0.239862	0.966598	0.969584
549	C	0.22142	0.930033	0.967678
550	H	0.217595	0.91777	0.937406
551	C	0.263907	0.521789	0.677572
552	C	0.257783	0.542064	0.708874
553	C	0.275874	0.578435	0.706861
554	C	0.300737	0.596198	0.673089
555	C	0.305856	0.576303	0.973658
556	C	0.287219	0.539676	0.974984
557	H	0.238955	0.530673	0.73268
558	H	0.270835	0.591902	0.730623
559	H	0.322697	0.588639	0.947779
560	H	0.206959	0.91298	0.744042
561	C	0.290603	0.519336	0.937705
562	C	0.255051	0.986891	0.927681
563	H	0.309146	0.511335	0.947648
564	H	0.300188	0.534689	0.907013
565	H	0.258624	0.971497	0.901946
566	H	0.237298	0.994903	0.914322
567	N	0.243034	0.979687	0.760871
568	O	0.217053	0.971906	0.78506
569	O	0.262656	0.471665	0.781345
570	C	0.486607	0.743785	0.677552
571	C	0.466329	0.717374	0.708841
572	C	0.429958	0.699118	0.706858
573	C	0.412197	0.706216	0.673079
574	C	0.432092	0.731211	0.973628
575	C	0.468722	0.749204	0.974957
576	H	0.47772	0.709968	0.732683
577	H	0.416491	0.680623	0.730626
578	H	0.419759	0.735729	0.947759
579	C	0.489063	0.772933	0.937688
580	H	0.497061	0.799476	0.947631
581	H	0.473713	0.767168	0.906993
582	O	0.536704	0.792675	0.781325
583	C	0.634972	0.318257	0.005065
584	C	0.653422	0.354838	0.005166
585	C	0.689999	0.373423	0.00507
586	C	0.708129	0.354975	0.005152
587	C	0.690139	0.318397	0.005048
588	C	0.653559	0.300265	0.00513
589	H	0.734658	0.368294	0.005817
590	H	0.640351	0.273738	0.005811
591	H	0.6401	0.368046	0.005839
592	C	0.875278	0.188051	0.004891
593	C	0.856108	0.151436	0.004864
594	C	0.819488	0.133117	0.004904
595	C	0.802044	0.152286	0.004851
596	C	0.820343	0.188906	0.004892
597	C	0.856957	0.206351	0.004843
598	H	0.775524	0.139334	0.005332
599	H	0.870526	0.23287	0.005319
600	H	0.869059	0.137869	0.00533
601	C	0.708605	0.300187	0.006884
602	C	0.719064	0.293464	0.048435
603	C	0.737035	0.274809	0.051313
604	C	0.746038	0.263462	0.011335
605	C	0.733467	0.268547	0.302904
606	C	0.715337	0.286982	0.300997
607	H	0.706895	0.290801	0.270723
608	C	0.764613	0.244504	0.010902
609	C	0.791014	0.250626	0.042198
610	C	0.809286	0.232528	0.040188
611	C	0.802177	0.20766	0.006417
612	C	0.777151	0.202532	0.306999
613	C	0.759183	0.221193	0.308309
614	H	0.798458	0.269458	0.066
615	H	0.827797	0.237569	0.063941
616	H	0.772653	0.185702	0.281109
617	H	0.712725	0.301429	0.077358
618	C	0.735459	0.217808	0.271034
619	C	0.738581	0.253365	0.261004
620	H	0.708912	0.199272	0.280978
621	H	0.741223	0.208216	0.240344
622	H	0.719623	0.2498	0.235258
623	H	0.76435	0.271114	0.247657
624	N	0.743381	0.265371	0.094186
625	O	0.76157	0.291353	0.118377
626	O	0.715739	0.245739	0.114656
627	C	0.708206	0.410097	0.006902
628	C	0.71493	0.427282	0.048452
629	C	0.733591	0.463909	0.051329
630	C	0.744971	0.484254	0.011351
631	C	0.739862	0.4666	0.302917
632	C	0.721419	0.430033	0.301014
633	H	0.717593	0.417769	0.270741
634	C	0.763907	0.021788	0.010905
635	C	0.757782	0.042064	0.042207
636	C	0.775873	0.078435	0.040196
637	C	0.800735	0.096197	0.006423
638	C	0.805855	0.076304	0.306991
639	C	0.787218	0.039675	0.308316
640	H	0.738954	0.030674	0.066012
641	H	0.770834	0.091901	0.063956
642	H	0.822697	0.088639	0.281112
643	H	0.706958	0.41298	0.077376
644	C	0.790602	0.019335	0.27104
645	C	0.75505	0.486891	0.261015
646	H	0.809144	0.011333	0.280981
647	H	0.800188	0.034689	0.240348
648	H	0.758623	0.471496	0.23528
649	H	0.737297	0.494903	0.247656
650	N	0.743032	0.479687	0.094206
651	O	0.717052	0.471905	0.118393
652	O	0.762655	0.971665	0.114678
653	C	0.598297	0.299791	0.0069
654	C	0.581111	0.289352	0.048451
655	C	0.544485	0.271375	0.051322
656	C	0.524139	0.26238	0.011341
657	C	0.541798	0.274941	0.30291
658	C	0.578363	0.293058	0.301009
659	H	0.590627	0.301491	0.270736
660	C	0.986607	0.243785	0.010887
661	C	0.966328	0.217373	0.042174
662	C	0.929958	0.199118	0.040191
663	C	0.912196	0.206215	0.006411
664	C	0.932092	0.231211	0.306962
665	C	0.96872	0.249203	0.30829
666	H	0.977719	0.209968	0.066019
667	H	0.916491	0.180623	0.063962
668	H	0.91976	0.235729	0.281093
669	H	0.595413	0.295677	0.077375
670	C	0.989063	0.272933	0.271021
671	C	0.52151	0.269828	0.261003
672	H	0.997061	0.299475	0.280967
673	H	0.973713	0.267167	0.240326
674	H	0.536904	0.288793	0.235266
675	H	0.513501	0.244062	0.247648
676	N	0.528697	0.265032	0.094193
677	O	0.536487	0.246844	0.11839
678	C	0.634972	0.318257	0.338398
679	C	0.653422	0.354838	0.338499
680	C	0.689999	0.373423	0.338402
681	C	0.708129	0.354975	0.338486
682	C	0.690139	0.318397	0.338382
683	C	0.653559	0.300265	0.338462
684	H	0.734658	0.368294	0.33915
685	H	0.640351	0.273738	0.339143
686	H	0.6401	0.368046	0.33917
687	C	0.875278	0.188051	0.338224
688	C	0.856108	0.151436	0.338197
689	C	0.819488	0.133117	0.338237
690	C	0.802044	0.152286	0.338184
691	C	0.820343	0.188906	0.338224
692	C	0.856957	0.206351	0.338177
693	H	0.775524	0.139334	0.338667
694	H	0.870526	0.23287	0.33865
695	H	0.869059	0.137869	0.338664
696	C	0.708605	0.300187	0.340217
697	C	0.719064	0.293464	0.381768
698	C	0.737035	0.274809	0.384647
699	C	0.746038	0.263462	0.344667
700	C	0.733467	0.268547	0.636236
701	C	0.715337	0.286982	0.63433
702	H	0.706895	0.290801	0.604055
703	C	0.764613	0.244504	0.344234
704	C	0.791014	0.250626	0.375533
705	C	0.809286	0.232528	0.37352
706	C	0.802177	0.20766	0.339751
707	C	0.777151	0.202532	0.64033
708	C	0.759183	0.221193	0.641642
709	H	0.798458	0.269458	0.399332
710	H	0.827797	0.237569	0.397275
711	H	0.772653	0.185702	0.614441
712	H	0.712725	0.301429	0.410691
713	C	0.735459	0.217808	0.604367
714	C	0.738581	0.253365	0.594337
715	H	0.708912	0.199272	0.61431
716	H	0.741223	0.208216	0.573679
717	H	0.719623	0.2498	0.568591
718	H	0.76435	0.271114	0.580991
719	N	0.743381	0.265371	0.42752
720	O	0.76157	0.291353	0.451711
721	O	0.715739	0.245739	0.44799
722	C	0.708206	0.410097	0.340234
723	C	0.71493	0.427282	0.381785
724	C	0.733591	0.463909	0.384661
725	C	0.744971	0.484254	0.344684
726	C	0.739862	0.4666	0.63625
727	C	0.721419	0.430033	0.634347
728	H	0.717593	0.417769	0.604075
729	C	0.763907	0.021788	0.344237
730	C	0.757782	0.042064	0.37554
731	C	0.775873	0.078435	0.37353
732	C	0.800735	0.096197	0.339758
733	C	0.805855	0.076304	0.640324
734	C	0.787218	0.039675	0.641649
735	H	0.738954	0.030674	0.399345
736	H	0.770834	0.091901	0.397288
737	H	0.822697	0.088639	0.614444
738	H	0.706958	0.41298	0.410708
739	C	0.790602	0.019335	0.604374
740	C	0.75505	0.486891	0.594347
741	H	0.809144	0.011333	0.614313
742	H	0.800188	0.034689	0.573682
743	H	0.758623	0.471496	0.568612
744	H	0.737297	0.494903	0.580988
745	N	0.743032	0.479687	0.42754
746	O	0.717052	0.471905	0.451728
747	O	0.762655	0.971665	0.44801
748	C	0.598297	0.299791	0.340234
749	C	0.581111	0.289352	0.381785
750	C	0.544485	0.271375	0.384654
751	C	0.524139	0.26238	0.344674
752	C	0.541798	0.274941	0.636243
753	C	0.578363	0.293058	0.63434
754	H	0.590627	0.301491	0.604068
755	C	0.986607	0.243785	0.344221
756	C	0.966328	0.217373	0.375506
757	C	0.929958	0.199118	0.373523
758	C	0.912196	0.206215	0.339744
759	C	0.932092	0.231211	0.640297
760	C	0.96872	0.249203	0.641622
761	H	0.977719	0.209968	0.399352
762	H	0.916491	0.180623	0.397295
763	H	0.91976	0.235729	0.614427
764	H	0.595413	0.295677	0.410708
765	C	0.989063	0.272933	0.604353
766	C	0.52151	0.269828	0.594337
767	H	0.997061	0.299475	0.6143
768	H	0.973713	0.267167	0.573659
769	H	0.536904	0.288793	0.568598
770	H	0.513501	0.244062	0.580981
771	N	0.528697	0.265032	0.427527
772	O	0.536487	0.246844	0.451721
773	C	0.634972	0.318257	0.67173
774	C	0.653422	0.354838	0.671831
775	C	0.689999	0.373423	0.671737
776	C	0.708129	0.354975	0.671817
777	C	0.690139	0.318397	0.671713
778	C	0.653559	0.300265	0.671797
779	H	0.734658	0.368294	0.672485
780	H	0.640351	0.273738	0.672478
781	H	0.6401	0.368046	0.672505
782	C	0.875278	0.188051	0.671559
783	C	0.856108	0.151436	0.671532
784	C	0.819488	0.133117	0.671569
785	C	0.802044	0.152286	0.671518
786	C	0.820343	0.188906	0.671559
787	C	0.856957	0.206351	0.671508
788	H	0.775524	0.139334	0.671998
789	H	0.870526	0.23287	0.671985
790	H	0.869059	0.137869	0.671995
791	C	0.708605	0.300187	0.673549
792	C	0.719064	0.293464	0.715099
793	C	0.737035	0.274809	0.717979
794	C	0.746038	0.263462	0.678002
795	C	0.733467	0.268547	0.969571
796	C	0.715337	0.286982	0.967662
797	H	0.706895	0.290801	0.93739
798	C	0.764613	0.244504	0.677569
799	C	0.791014	0.250626	0.708864
800	C	0.809286	0.232528	0.706854
801	C	0.802177	0.20766	0.673082
802	C	0.777151	0.202532	0.973665
803	C	0.759183	0.221193	0.974977
804	H	0.798458	0.269458	0.732667
805	H	0.827797	0.237569	0.730606
806	H	0.772653	0.185702	0.947776
807	H	0.712725	0.301429	0.744026
808	C	0.735459	0.217808	0.937702
809	C	0.738581	0.253365	0.927671
810	H	0.708912	0.199272	0.947645
811	H	0.741223	0.208216	0.90701
812	H	0.719623	0.2498	0.901923
813	H	0.76435	0.271114	0.914322
814	N	0.743381	0.265371	0.760851
815	O	0.76157	0.291353	0.785043
816	O	0.715739	0.245739	0.781321
817	C	0.708206	0.410097	0.673569
818	C	0.71493	0.427282	0.715119
819	C	0.733591	0.463909	0.717995
820	C	0.744971	0.484254	0.678018
821	C	0.739862	0.4666	0.969584
822	C	0.721419	0.430033	0.967678
823	H	0.717593	0.417769	0.937406
824	C	0.763907	0.021788	0.677572
825	C	0.757782	0.042064	0.708874
826	C	0.775873	0.078435	0.706861
827	C	0.800735	0.096197	0.673089
828	C	0.805855	0.076304	0.973658
829	C	0.787218	0.039675	0.974984
830	H	0.738954	0.030674	0.73268
831	H	0.770834	0.091901	0.730623
832	H	0.822697	0.088639	0.947779
833	H	0.706958	0.41298	0.744042
834	C	0.790602	0.019335	0.937705
835	C	0.75505	0.486891	0.927681
836	H	0.809144	0.011333	0.947648
837	H	0.800188	0.034689	0.907013
838	H	0.758623	0.471496	0.901946
839	H	0.737297	0.494903	0.914322
840	N	0.743032	0.479687	0.760871
841	O	0.717052	0.471905	0.78506
842	O	0.762655	0.971665	0.781345
843	C	0.598297	0.299791	0.673565
844	C	0.581111	0.289352	0.715116
845	C	0.544485	0.271375	0.717989
846	C	0.524139	0.26238	0.678008
847	C	0.541798	0.274941	0.969574
848	C	0.578363	0.293058	0.967675
849	H	0.590627	0.301491	0.937403
850	C	0.986607	0.243785	0.677552
851	C	0.966328	0.217373	0.708841
852	C	0.929958	0.199118	0.706858
853	C	0.912196	0.206215	0.673079
854	C	0.932092	0.231211	0.973628
855	C	0.96872	0.249203	0.974957
856	H	0.977719	0.209968	0.732683
857	H	0.916491	0.180623	0.730626
858	H	0.91976	0.235729	0.947759
859	H	0.595413	0.295677	0.744042
860	C	0.989063	0.272933	0.937688
861	C	0.52151	0.269828	0.927668
862	H	0.997061	0.299475	0.947631
863	H	0.973713	0.267167	0.906993
864	H	0.536904	0.288793	0.901933
865	H	0.513501	0.244062	0.914316
866	N	0.528697	0.265032	0.760858
867	O	0.536487	0.246844	0.785056
868	C	0.634974	0.818258	0.005065
869	C	0.653421	0.854838	0.005165
870	C	0.689998	0.873424	0.00507
871	C	0.708131	0.854975	0.005152
872	C	0.690139	0.818395	0.005048
873	C	0.653558	0.800265	0.00513
874	H	0.734657	0.868295	0.005817
875	H	0.640351	0.773738	0.005811
876	H	0.640102	0.868046	0.005839
877	C	0.875276	0.68805	0.004891
878	C	0.856107	0.651436	0.004864
879	C	0.819488	0.633117	0.004904
880	C	0.802043	0.652287	0.004851
881	C	0.820344	0.688906	0.004892
882	C	0.856958	0.70635	0.004843
883	H	0.775526	0.639335	0.005332
884	H	0.870525	0.73287	0.005319
885	H	0.86906	0.637868	0.00533
886	C	0.708604	0.800188	0.006884
887	C	0.719066	0.793465	0.048435
888	C	0.737037	0.774809	0.051313
889	C	0.746037	0.763462	0.011335
890	C	0.733468	0.768547	0.302904
891	C	0.715338	0.786982	0.300997
892	H	0.706894	0.790802	0.270723
893	C	0.764614	0.744504	0.010902
894	C	0.791016	0.750627	0.042198
895	C	0.809287	0.732528	0.040188
896	C	0.802178	0.70766	0.006417
897	C	0.777151	0.702531	0.306999
898	C	0.759185	0.721194	0.308309
899	H	0.79846	0.769458	0.066
900	H	0.827798	0.737569	0.063941
901	H	0.772653	0.685703	0.281109
902	H	0.712726	0.80143	0.077358
903	C	0.735457	0.717806	0.271034
904	C	0.738582	0.753365	0.261004
905	H	0.708914	0.699273	0.280978
906	H	0.741222	0.708216	0.240344
907	H	0.719625	0.749801	0.235258
908	H	0.764352	0.771114	0.247657
909	N	0.743382	0.765372	0.094186
910	O	0.761572	0.791353	0.118377
911	O	0.71574	0.745739	0.114656
912	C	0.708207	0.910097	0.006902
913	C	0.714931	0.927282	0.048452
914	C	0.733592	0.96391	0.051329
915	C	0.744972	0.984254	0.011351
916	C	0.739862	0.966598	0.302917
917	C	0.721418	0.930033	0.301014
918	H	0.717595	0.91777	0.270741
919	C	0.763907	0.521789	0.010905
920	C	0.757783	0.542064	0.042207
921	C	0.775872	0.578435	0.040196
922	C	0.800737	0.596198	0.006423
923	C	0.805856	0.576303	0.306991
924	C	0.787217	0.539676	0.308316
925	H	0.738955	0.530673	0.066012
926	H	0.770833	0.591902	0.063956
927	H	0.822696	0.588639	0.281112
928	H	0.706959	0.91298	0.077376
929	C	0.790604	0.519336	0.27104
930	C	0.755049	0.986891	0.261015
931	H	0.809146	0.511335	0.280981
932	H	0.800187	0.534689	0.240348
933	H	0.758622	0.971497	0.23528
934	H	0.737296	0.994903	0.247656
935	N	0.743034	0.979687	0.094206
936	O	0.717053	0.971906	0.118393
937	O	0.762655	0.471665	0.114678
938	C	0.598298	0.799792	0.0069
939	C	0.58111	0.78935	0.048451
940	C	0.544486	0.771376	0.051322
941	C	0.524141	0.762381	0.011341
942	C	0.541797	0.774939	0.30291
943	C	0.578364	0.793058	0.301009
944	H	0.590628	0.801492	0.270736
945	C	0.986605	0.743785	0.010887
946	C	0.96633	0.717374	0.042174
947	C	0.929957	0.699118	0.040191
948	C	0.912198	0.706216	0.006411
949	C	0.932091	0.731211	0.306962
950	C	0.968722	0.749204	0.30829
951	H	0.97772	0.709968	0.066019
952	H	0.91649	0.680623	0.063962
953	H	0.919759	0.735729	0.281093
954	H	0.595414	0.795677	0.077375
955	C	0.989062	0.772933	0.271021
956	C	0.52151	0.769828	0.261003
957	H	0.99706	0.799476	0.280967
958	H	0.973713	0.767168	0.240326
959	H	0.536904	0.788794	0.235266
960	H	0.513501	0.744062	0.247648
961	N	0.528697	0.765033	0.094193
962	O	0.536487	0.746844	0.11839
963	C	0.634974	0.818258	0.338398
964	C	0.653421	0.854838	0.338499
965	C	0.689998	0.873424	0.338402
966	C	0.708131	0.854975	0.338486
967	C	0.690139	0.818395	0.338382
968	C	0.653558	0.800265	0.338462
969	H	0.734657	0.868295	0.33915
970	H	0.640351	0.773738	0.339143
971	H	0.640102	0.868046	0.33917
972	C	0.875276	0.68805	0.338224
973	C	0.856107	0.651436	0.338197
974	C	0.819488	0.633117	0.338237
975	C	0.802043	0.652287	0.338184
976	C	0.820344	0.688906	0.338224
977	C	0.856958	0.70635	0.338177
978	H	0.775526	0.639335	0.338667
979	H	0.870525	0.73287	0.33865
980	H	0.86906	0.637868	0.338664
981	C	0.708604	0.800188	0.340217
982	C	0.719066	0.793465	0.381768
983	C	0.737037	0.774809	0.384647
984	C	0.746037	0.763462	0.344667
985	C	0.733468	0.768547	0.636236
986	C	0.715338	0.786982	0.63433
987	H	0.706894	0.790802	0.604055
988	C	0.764614	0.744504	0.344234
989	C	0.791016	0.750627	0.375533
990	C	0.809287	0.732528	0.37352
991	C	0.802178	0.70766	0.339751
992	C	0.777151	0.702531	0.64033
993	C	0.759185	0.721194	0.641642
994	H	0.79846	0.769458	0.399332
995	H	0.827798	0.737569	0.397275
996	H	0.772653	0.685703	0.614441
997	H	0.712726	0.80143	0.410691
998	C	0.735457	0.717806	0.604367
999	C	0.738582	0.753365	0.594337
1000	H	0.708914	0.699273	0.61431
1001	H	0.741222	0.708216	0.573679
1002	H	0.719625	0.749801	0.568591
1003	H	0.764352	0.771114	0.580991
1004	N	0.743382	0.765372	0.42752
1005	O	0.761572	0.791353	0.451711
1006	O	0.71574	0.745739	0.44799
1007	C	0.708207	0.910097	0.340234
1008	C	0.714931	0.927282	0.381785
1009	C	0.733592	0.96391	0.384661
1010	C	0.744972	0.984254	0.344684
1011	C	0.739862	0.966598	0.63625
1012	C	0.721418	0.930033	0.634347
1013	H	0.717595	0.91777	0.604075
1014	C	0.763907	0.521789	0.344237
1015	C	0.757783	0.542064	0.37554
1016	C	0.775872	0.578435	0.37353
1017	C	0.800737	0.596198	0.339758
1018	C	0.805856	0.576303	0.640324
1019	C	0.787217	0.539676	0.641649
1020	H	0.738955	0.530673	0.399345
1021	H	0.770833	0.591902	0.397288
1022	H	0.822696	0.588639	0.614444
1023	H	0.706959	0.91298	0.410708
1024	C	0.790604	0.519336	0.604374
1025	C	0.755049	0.986891	0.594347
1026	H	0.809146	0.511335	0.614313
1027	H	0.800187	0.534689	0.573682
1028	H	0.758622	0.971497	0.568612
1029	H	0.737296	0.994903	0.580988
1030	N	0.743034	0.979687	0.42754
1031	O	0.717053	0.971906	0.451728
1032	O	0.762655	0.471665	0.44801
1033	C	0.598298	0.799792	0.340234
1034	C	0.58111	0.78935	0.381785
1035	C	0.544486	0.771376	0.384654
1036	C	0.524141	0.762381	0.344674
1037	C	0.541797	0.774939	0.636243
1038	C	0.578364	0.793058	0.63434
1039	H	0.590628	0.801492	0.604068
1040	C	0.986605	0.743785	0.344221
1041	C	0.96633	0.717374	0.375506
1042	C	0.929957	0.699118	0.373523
1043	C	0.912198	0.706216	0.339744
1044	C	0.932091	0.731211	0.640297
1045	C	0.968722	0.749204	0.641622
1046	H	0.97772	0.709968	0.399352
1047	H	0.91649	0.680623	0.397295
1048	H	0.919759	0.735729	0.614427
1049	H	0.595414	0.795677	0.410708
1050	C	0.989062	0.772933	0.604353
1051	C	0.52151	0.769828	0.594337
1052	H	0.99706	0.799476	0.6143
1053	H	0.973713	0.767168	0.573659
1054	H	0.536904	0.788794	0.568598
1055	H	0.513501	0.744062	0.580981
1056	N	0.528697	0.765033	0.427527
1057	O	0.536487	0.746844	0.451721
1058	C	0.634974	0.818258	0.67173
1059	C	0.653421	0.854838	0.671831
1060	C	0.689998	0.873424	0.671737
1061	C	0.708131	0.854975	0.671817
1062	C	0.690139	0.818395	0.671713
1063	C	0.653558	0.800265	0.671797
1064	H	0.734657	0.868295	0.672485
1065	H	0.640351	0.773738	0.672478
1066	H	0.640102	0.868046	0.672505
1067	C	0.875276	0.68805	0.671559
1068	C	0.856107	0.651436	0.671532
1069	C	0.819488	0.633117	0.671569
1070	C	0.802043	0.652287	0.671518
1071	C	0.820344	0.688906	0.671559
1072	C	0.856958	0.70635	0.671508
1073	H	0.775526	0.639335	0.671998
1074	H	0.870525	0.73287	0.671985
1075	H	0.86906	0.637868	0.671995
1076	C	0.708604	0.800188	0.673549
1077	C	0.719066	0.793465	0.715099
1078	C	0.737037	0.774809	0.717979
1079	C	0.746037	0.763462	0.678002
1080	C	0.733468	0.768547	0.969571
1081	C	0.715338	0.786982	0.967662
1082	H	0.706894	0.790802	0.93739
1083	C	0.764614	0.744504	0.677569
1084	C	0.791016	0.750627	0.708864
1085	C	0.809287	0.732528	0.706854
1086	C	0.802178	0.70766	0.673082
1087	C	0.777151	0.702531	0.973665
1088	C	0.759185	0.721194	0.974977
1089	H	0.79846	0.769458	0.732667
1090	H	0.827798	0.737569	0.730606
1091	H	0.772653	0.685703	0.947776
1092	H	0.712726	0.80143	0.744026
1093	C	0.735457	0.717806	0.937702
1094	C	0.738582	0.753365	0.927671
1095	H	0.708914	0.699273	0.947645
1096	H	0.741222	0.708216	0.90701
1097	H	0.719625	0.749801	0.901923
1098	H	0.764352	0.771114	0.914322
1099	N	0.743382	0.765372	0.760851
1100	O	0.761572	0.791353	0.785043
1101	O	0.71574	0.745739	0.781321
1102	C	0.708207	0.910097	0.673569
1103	C	0.714931	0.927282	0.715119
1104	C	0.733592	0.96391	0.717995
1105	C	0.744972	0.984254	0.678018
1106	C	0.739862	0.966598	0.969584
1107	C	0.721418	0.930033	0.967678
1108	H	0.717595	0.91777	0.937406
1109	C	0.763907	0.521789	0.677572
1110	C	0.757783	0.542064	0.708874
1111	C	0.775872	0.578435	0.706861
1112	C	0.800737	0.596198	0.673089
1113	C	0.805856	0.576303	0.973658
1114	C	0.787217	0.539676	0.974984
1115	H	0.738955	0.530673	0.73268
1116	H	0.770833	0.591902	0.730623
1117	H	0.822696	0.588639	0.947779
1118	H	0.706959	0.91298	0.744042
1119	C	0.790604	0.519336	0.937705
1120	C	0.755049	0.986891	0.927681
1121	H	0.809146	0.511335	0.947648
1122	H	0.800187	0.534689	0.907013
1123	H	0.758622	0.971497	0.901946
1124	H	0.737296	0.994903	0.914322
1125	N	0.743034	0.979687	0.760871
1126	O	0.717053	0.971906	0.78506
1127	O	0.762655	0.471665	0.781345
1128	C	0.598298	0.799792	0.673565
1129	C	0.58111	0.78935	0.715116
1130	C	0.544486	0.771376	0.717989
1131	C	0.524141	0.762381	0.678008
1132	C	0.541797	0.774939	0.969574
1133	C	0.578364	0.793058	0.967675
1134	H	0.590628	0.801492	0.937403
1135	C	0.986605	0.743785	0.677552
1136	C	0.96633	0.717374	0.708841
1137	C	0.929957	0.699118	0.706858
1138	C	0.912198	0.706216	0.673079
1139	C	0.932091	0.731211	0.973628
1140	C	0.968722	0.749204	0.974957
1141	H	0.97772	0.709968	0.732683
1142	H	0.91649	0.680623	0.730626
1143	H	0.919759	0.735729	0.947759
1144	H	0.595414	0.795677	0.744042
1145	C	0.989062	0.772933	0.937688
1146	C	0.52151	0.769828	0.927668
1147	H	0.99706	0.799476	0.947631
1148	H	0.973713	0.767168	0.906993
1149	H	0.536904	0.788794	0.901933
1150	H	0.513501	0.744062	0.914316
1151	N	0.528697	0.765033	0.760858
1152	O	0.536487	0.746844	0.785056
