data_C576H288N72O144_2018-02-15_10:39:23
#******************************************
#
# CIF file created by Zeo++
# Zeo++ is an open source package to
# analyze microporous materials
#
#*******************************************

_cell_length_a		44.3891   
_cell_length_b		44.3891   
_cell_length_c		29.8768   
_cell_angle_alpha		90   
_cell_angle_beta		90   
_cell_angle_gamma		120   

_symmetry_space_group_name_H-M		'P1'
_symmetry_Int_Tables_number		1
_symmetry_cell_setting		Monoclinic

loop_
_symmetry_equiv_pos_as_xyz
'+x,+y,+z'

loop_
_atom_site_label
_atom_site_type_symbol
_atom_site_fract_x
_atom_site_fract_y
_atom_site_fract_z
1	C	0.020939	0.265605	0.00557
2	C	0.03962	0.295902	0.311945
3	N	0.039794	0.254391	0.028886
4	C	0.023062	0.310808	0.288889
5	O	0.029655	0.317722	0.24922
6	C	0.020939	0.265605	0.338902
7	C	0.03962	0.295902	0.645277
8	N	0.039794	0.254391	0.362218
9	C	0.023062	0.310808	0.622222
10	O	0.029655	0.317722	0.582553
11	C	0.020939	0.265605	0.672238
12	C	0.03962	0.295902	0.978609
13	N	0.039794	0.254391	0.695554
14	C	0.023062	0.310808	0.955555
15	O	0.029655	0.317722	0.915885
16	C	0.020939	0.765603	0.00557
17	C	0.03962	0.795901	0.311945
18	N	0.039794	0.754391	0.028886
19	C	0.023064	0.810809	0.288889
20	O	0.029657	0.817723	0.24922
21	C	0.020939	0.765603	0.338902
22	C	0.03962	0.795901	0.645277
23	N	0.039794	0.754391	0.362218
24	C	0.023064	0.810809	0.622222
25	O	0.029657	0.817723	0.582553
26	C	0.020939	0.765603	0.672238
27	C	0.03962	0.795901	0.978609
28	N	0.039794	0.754391	0.695554
29	C	0.023064	0.810809	0.955555
30	O	0.029657	0.817723	0.915885
31	O	0.011523	0.327459	0.308451
32	H	0.00769	0.326678	0.337647
33	O	0.011523	0.327459	0.641783
34	H	0.00769	0.326678	0.670979
35	O	0.011523	0.327459	0.975118
36	H	0.00769	0.326678	0.004312
37	O	0.011524	0.82746	0.308451
38	H	0.00769	0.826677	0.337647
39	O	0.011524	0.82746	0.641783
40	H	0.00769	0.826677	0.670979
41	O	0.011524	0.82746	0.975118
42	H	0.00769	0.826677	0.004312
43	C	0.076465	0.312821	0.311442
44	C	0.074947	0.270081	0.028847
45	H	0.089971	0.334573	0.292046
46	H	0.086289	0.259801	0.048681
47	C	0.076465	0.312821	0.644775
48	C	0.074947	0.270081	0.362181
49	H	0.089971	0.334573	0.625379
50	H	0.086289	0.259801	0.382016
51	C	0.076465	0.312821	0.978107
52	C	0.074947	0.270081	0.695513
53	H	0.089971	0.334573	0.958711
54	H	0.086289	0.259801	0.715348
55	C	0.076466	0.812822	0.311442
56	C	0.074948	0.770082	0.028847
57	H	0.089971	0.834574	0.292046
58	H	0.086288	0.759799	0.048681
59	C	0.076466	0.812822	0.644775
60	C	0.074948	0.770082	0.362181
61	H	0.089971	0.834574	0.625379
62	H	0.086288	0.759799	0.382016
63	C	0.076466	0.812822	0.978107
64	C	0.074948	0.770082	0.695513
65	H	0.089971	0.834574	0.958711
66	H	0.086288	0.759799	0.715348
67	C	0.132487	0.317948	0.003245
68	C	0.152746	0.354739	0.003288
69	C	0.189588	0.372669	0.003247
70	C	0.206118	0.35241	0.003289
71	C	0.187207	0.315568	0.003247
72	C	0.150419	0.299039	0.003288
73	H	0.2327	0.364837	0.003384
74	H	0.136264	0.272456	0.003382
75	H	0.140318	0.368892	0.003382
76	C	0.373325	0.187571	0.006034
77	C	0.355125	0.150815	0.006102
78	C	0.318371	0.13183	0.006035
79	C	0.299815	0.150031	0.006087
80	C	0.317585	0.186784	0.006031
81	C	0.35434	0.20534	0.006085
82	H	0.273154	0.136412	0.006572
83	H	0.367383	0.232002	0.00657
84	H	0.368744	0.137773	0.006576
85	C	0.298762	0.204783	0.007319
86	C	0.281756	0.20737	0.302331
87	N	0.263541	0.224332	0.304775
88	C	0.259599	0.239266	0.009162
89	C	0.27637	0.237439	0.048993
90	C	0.29585	0.220062	0.047284
91	H	0.307402	0.217704	0.075752
92	C	0.239555	0.256368	0.005569
93	C	0.209258	0.244751	0.311944
94	C	0.192336	0.264676	0.311443
95	C	0.204699	0.295699	0.003262
96	C	0.235075	0.305896	0.028848
97	N	0.250767	0.286436	0.028886
98	H	0.170584	0.256429	0.292047
99	H	0.245355	0.327518	0.048684
100	H	0.283045	0.196854	0.272459
101	C	0.194352	0.213287	0.288887
102	C	0.27217	0.249851	0.089735
103	O	0.187436	0.212966	0.249219
104	O	0.177702	0.185096	0.308449
105	H	0.178486	0.182044	0.337643
106	O	0.298075	0.268305	0.11223
107	O	0.243719	0.232354	0.108351
108	H	0.238924	0.236578	0.135627
109	C	0.300373	0.095009	0.007323
110	C	0.297786	0.075416	0.302335
111	N	0.280826	0.040239	0.304777
112	C	0.265891	0.021363	0.009164
113	C	0.267715	0.039961	0.048996
114	C	0.285093	0.076818	0.047287
115	H	0.28745	0.090727	0.075755
116	C	0.248788	0.484216	0.00557
117	C	0.260405	0.465536	0.311945
118	C	0.240482	0.428691	0.311444
119	C	0.209456	0.410029	0.00326
120	C	0.199259	0.430208	0.028848
121	N	0.218721	0.465362	0.028887
122	H	0.248728	0.415185	0.292047
123	H	0.177637	0.418866	0.048684
124	H	0.308302	0.087222	0.272463
125	C	0.29187	0.482096	0.288889
126	C	0.255301	0.023348	0.089736
127	O	0.292192	0.475502	0.24922
128	O	0.320061	0.993637	0.308451
129	H	0.323113	0.997471	0.337647
130	O	0.236847	0.030799	0.11223
131	O	0.272799	0.512394	0.108355
132	H	0.268574	0.503375	0.13563
133	C	0.410146	0.206394	0.007321
134	C	0.429739	0.223407	0.302336
135	N	0.464916	0.241623	0.304779
136	C	0.483792	0.24556	0.009164
137	C	0.465195	0.228784	0.048994
138	C	0.428339	0.209303	0.047285
139	H	0.414429	0.197748	0.075752
140	C	0.095127	0.300457	0.003258
141	H	0.417933	0.222121	0.272465
142	C	0.481808	0.232981	0.089734
143	O	0.511522	0.327459	0.308451
144	H	0.50769	0.326678	0.337647
145	O	0.474356	0.207075	0.112225
146	O	0.99276	0.261429	0.108356
147	H	0.00178	0.266224	0.135631
148	C	0.132487	0.317948	0.336579
149	C	0.152746	0.354739	0.336623
150	C	0.189588	0.372669	0.336579
151	C	0.206118	0.35241	0.336623
152	C	0.187207	0.315568	0.336579
153	C	0.150419	0.299039	0.336619
154	H	0.2327	0.364837	0.336716
155	H	0.136264	0.272456	0.336716
156	H	0.140318	0.368892	0.336716
157	C	0.373325	0.187571	0.339367
158	C	0.355125	0.150815	0.339434
159	C	0.318371	0.13183	0.339367
160	C	0.299815	0.150031	0.339421
161	C	0.317585	0.186784	0.339364
162	C	0.35434	0.20534	0.339417
163	H	0.273154	0.136412	0.339906
164	H	0.367383	0.232002	0.339903
165	H	0.368744	0.137773	0.339909
166	C	0.298762	0.204783	0.340652
167	C	0.281756	0.20737	0.635664
168	N	0.263541	0.224332	0.638108
169	C	0.259599	0.239266	0.342493
170	C	0.27637	0.237439	0.382327
171	C	0.29585	0.220062	0.380617
172	H	0.307402	0.217704	0.409087
173	C	0.239555	0.256368	0.338902
174	C	0.209258	0.244751	0.645277
175	C	0.192336	0.264676	0.644775
176	C	0.204699	0.295699	0.336596
177	C	0.235075	0.305896	0.362181
178	N	0.250767	0.286436	0.362218
179	H	0.170584	0.256429	0.625379
180	H	0.245355	0.327518	0.382016
181	H	0.283045	0.196854	0.605792
182	C	0.194352	0.213287	0.622219
183	C	0.27217	0.249851	0.423068
184	O	0.187436	0.212966	0.582553
185	O	0.177702	0.185096	0.641783
186	H	0.178486	0.182044	0.670976
187	O	0.298075	0.268305	0.445563
188	O	0.243719	0.232354	0.441684
189	H	0.238924	0.236578	0.468959
190	C	0.300373	0.095009	0.340656
191	C	0.297786	0.075416	0.635668
192	N	0.280826	0.040239	0.638111
193	C	0.265891	0.021363	0.342497
194	C	0.267715	0.039961	0.382327
195	C	0.285093	0.076818	0.38062
196	H	0.28745	0.090727	0.409087
197	C	0.248788	0.484216	0.338902
198	C	0.260405	0.465536	0.645277
199	C	0.240482	0.428691	0.644775
200	C	0.209456	0.410029	0.336592
201	C	0.199259	0.430208	0.362181
202	N	0.218721	0.465362	0.362221
203	H	0.248728	0.415185	0.625379
204	H	0.177637	0.418866	0.382016
205	H	0.308302	0.087222	0.605795
206	C	0.29187	0.482096	0.622222
207	C	0.255301	0.023348	0.423068
208	O	0.292192	0.475502	0.582553
209	O	0.320061	0.993637	0.641783
210	H	0.323113	0.997471	0.670979
211	O	0.236847	0.030799	0.445563
212	O	0.272799	0.512394	0.441687
213	H	0.268574	0.503375	0.468963
214	C	0.410146	0.206394	0.340656
215	C	0.429739	0.223407	0.635668
216	N	0.464916	0.241623	0.638111
217	C	0.483792	0.24556	0.342497
218	C	0.465195	0.228784	0.382327
219	C	0.428339	0.209303	0.380617
220	H	0.414429	0.197748	0.409087
221	C	0.095127	0.300457	0.336592
222	H	0.417933	0.222121	0.605798
223	C	0.481808	0.232981	0.423068
224	O	0.511522	0.327459	0.641783
225	H	0.50769	0.326678	0.670979
226	O	0.474356	0.207075	0.445557
227	O	0.99276	0.261429	0.441687
228	H	0.00178	0.266224	0.468963
229	C	0.132487	0.317948	0.669912
230	C	0.152746	0.354739	0.669955
231	C	0.189588	0.372669	0.669912
232	C	0.206118	0.35241	0.669955
233	C	0.187207	0.315568	0.669912
234	C	0.150419	0.299039	0.669955
235	H	0.2327	0.364837	0.670049
236	H	0.136264	0.272456	0.670049
237	H	0.140318	0.368892	0.670049
238	C	0.373325	0.187571	0.6727
239	C	0.355125	0.150815	0.672767
240	C	0.318371	0.13183	0.6727
241	C	0.299815	0.150031	0.672753
242	C	0.317585	0.186784	0.672696
243	C	0.35434	0.20534	0.672753
244	H	0.273154	0.136412	0.673239
245	H	0.367383	0.232002	0.673235
246	H	0.368744	0.137773	0.673242
247	C	0.298762	0.204783	0.673985
248	C	0.281756	0.20737	0.968997
249	N	0.263541	0.224332	0.97144
250	C	0.259599	0.239266	0.675829
251	C	0.27637	0.237439	0.715659
252	C	0.29585	0.220062	0.713949
253	H	0.307402	0.217704	0.742419
254	C	0.239555	0.256368	0.672234
255	C	0.209258	0.244751	0.978609
256	C	0.192336	0.264676	0.978111
257	C	0.204699	0.295699	0.669928
258	C	0.235075	0.305896	0.695513
259	N	0.250767	0.286436	0.695554
260	H	0.170584	0.256429	0.958711
261	H	0.245355	0.327518	0.715348
262	H	0.283045	0.196854	0.939124
263	C	0.194352	0.213287	0.955555
264	C	0.27217	0.249851	0.7564
265	O	0.187436	0.212966	0.915885
266	O	0.177702	0.185096	0.975115
267	H	0.178486	0.182044	0.00431
268	O	0.298075	0.268305	0.778896
269	O	0.243719	0.232354	0.775017
270	H	0.238924	0.236578	0.802292
271	C	0.300373	0.095009	0.673988
272	C	0.297786	0.075416	0.969
273	N	0.280826	0.040239	0.971443
274	C	0.265891	0.021363	0.675829
275	C	0.267715	0.039961	0.715663
276	C	0.285093	0.076818	0.713952
277	H	0.28745	0.090727	0.742423
278	C	0.248788	0.484216	0.672238
279	C	0.260405	0.465536	0.978613
280	C	0.240482	0.428691	0.978111
281	C	0.209456	0.410029	0.669925
282	C	0.199259	0.430208	0.695513
283	N	0.218721	0.465362	0.695554
284	H	0.248728	0.415185	0.958714
285	H	0.177637	0.418866	0.715348
286	H	0.308302	0.087222	0.939131
287	C	0.29187	0.482096	0.955555
288	C	0.255301	0.023348	0.756403
289	O	0.292192	0.475502	0.915885
290	O	0.320061	0.993637	0.975118
291	H	0.323113	0.997471	0.004312
292	O	0.236847	0.030799	0.778896
293	O	0.272799	0.512394	0.77502
294	H	0.268574	0.503375	0.802295
295	C	0.410146	0.206394	0.673988
296	C	0.429739	0.223407	0.969003
297	N	0.464916	0.241623	0.971447
298	C	0.483792	0.24556	0.675829
299	C	0.465195	0.228784	0.715659
300	C	0.428339	0.209303	0.713952
301	H	0.414429	0.197748	0.742419
302	C	0.095127	0.300457	0.669925
303	H	0.417933	0.222121	0.939131
304	C	0.481808	0.232981	0.7564
305	O	0.511522	0.327459	0.975118
306	H	0.50769	0.326678	0.004312
307	O	0.474356	0.207075	0.778892
308	O	0.99276	0.261429	0.775023
309	H	0.00178	0.266224	0.802299
310	C	0.132489	0.817949	0.003245
311	C	0.152746	0.854737	0.003288
312	C	0.189587	0.872668	0.003247
313	C	0.206117	0.852409	0.003289
314	C	0.187208	0.815569	0.003247
315	C	0.150418	0.799038	0.003288
316	H	0.232701	0.864838	0.003384
317	H	0.136264	0.772455	0.003382
318	H	0.140319	0.868893	0.003382
319	C	0.373326	0.687571	0.006034
320	C	0.355125	0.650815	0.006102
321	C	0.318372	0.63183	0.006035
322	C	0.299816	0.650032	0.006087
323	C	0.317584	0.686783	0.006031
324	C	0.354341	0.705338	0.006085
325	H	0.273154	0.636411	0.006572
326	H	0.367384	0.732002	0.00657
327	H	0.368744	0.637772	0.006576
328	C	0.298762	0.704782	0.007319
329	C	0.281756	0.70737	0.302331
330	N	0.26354	0.724331	0.304775
331	C	0.259599	0.739265	0.009162
332	C	0.27637	0.737439	0.048993
333	C	0.29585	0.720062	0.047284
334	H	0.307402	0.717702	0.075752
335	C	0.239556	0.756368	0.005569
336	C	0.209258	0.744751	0.311944
337	C	0.192336	0.764674	0.311443
338	C	0.2047	0.7957	0.003262
339	C	0.235076	0.805897	0.028848
340	N	0.250767	0.786434	0.028886
341	H	0.170584	0.756428	0.292047
342	H	0.245356	0.827519	0.048684
343	H	0.283045	0.696853	0.272459
344	C	0.194353	0.713288	0.288887
345	C	0.272171	0.749852	0.089735
346	O	0.187436	0.712965	0.249219
347	O	0.177702	0.685095	0.308449
348	H	0.178486	0.682044	0.337643
349	O	0.298075	0.768303	0.11223
350	O	0.243719	0.732353	0.108351
351	H	0.238924	0.736578	0.135627
352	C	0.300373	0.595009	0.007323
353	C	0.297787	0.575416	0.302335
354	N	0.280825	0.540238	0.304777
355	C	0.26589	0.521363	0.009164
356	C	0.267715	0.53996	0.048996
357	C	0.285093	0.576818	0.047287
358	H	0.28745	0.590727	0.075755
359	C	0.248789	0.984217	0.00557
360	C	0.260406	0.965537	0.311945
361	C	0.240482	0.92869	0.311444
362	C	0.209455	0.910028	0.00326
363	C	0.199261	0.930209	0.028848
364	N	0.21872	0.96536	0.028887
365	H	0.248729	0.915186	0.292047
366	H	0.177638	0.918867	0.048684
367	H	0.308303	0.587221	0.272463
368	C	0.29187	0.982095	0.288889
369	C	0.255302	0.523348	0.089736
370	O	0.292192	0.9755	0.24922
371	O	0.32006	0.493636	0.308451
372	H	0.323113	0.497473	0.337647
373	O	0.236847	0.530798	0.11223
374	O	0.272799	0.012395	0.108355
375	H	0.268573	0.003375	0.13563
376	C	0.410148	0.706395	0.007321
377	C	0.42974	0.723407	0.302336
378	N	0.464916	0.741622	0.304779
379	C	0.483793	0.74556	0.009164
380	C	0.465196	0.728784	0.048994
381	C	0.428339	0.709303	0.047285
382	H	0.414429	0.697748	0.075752
383	C	0.095127	0.800455	0.003258
384	H	0.417934	0.722119	0.272465
385	C	0.481808	0.73298	0.089734
386	O	0.511524	0.82746	0.308451
387	H	0.507689	0.826677	0.337647
388	O	0.474357	0.707073	0.112225
389	O	0.992761	0.761431	0.108356
390	H	0.00178	0.766222	0.135631
391	C	0.132489	0.817949	0.336579
392	C	0.152746	0.854737	0.336623
393	C	0.189587	0.872668	0.336579
394	C	0.206117	0.852409	0.336623
395	C	0.187208	0.815569	0.336579
396	C	0.150418	0.799038	0.336619
397	H	0.232701	0.864838	0.336716
398	H	0.136264	0.772455	0.336716
399	H	0.140319	0.868893	0.336716
400	C	0.373326	0.687571	0.339367
401	C	0.355125	0.650815	0.339434
402	C	0.318372	0.63183	0.339367
403	C	0.299816	0.650032	0.339421
404	C	0.317584	0.686783	0.339364
405	C	0.354341	0.705338	0.339417
406	H	0.273154	0.636411	0.339906
407	H	0.367384	0.732002	0.339903
408	H	0.368744	0.637772	0.339909
409	C	0.298762	0.704782	0.340652
410	C	0.281756	0.70737	0.635664
411	N	0.26354	0.724331	0.638108
412	C	0.259599	0.739265	0.342493
413	C	0.27637	0.737439	0.382327
414	C	0.29585	0.720062	0.380617
415	H	0.307402	0.717702	0.409087
416	C	0.239556	0.756368	0.338902
417	C	0.209258	0.744751	0.645277
418	C	0.192336	0.764674	0.644775
419	C	0.2047	0.7957	0.336596
420	C	0.235076	0.805897	0.362181
421	N	0.250767	0.786434	0.362218
422	H	0.170584	0.756428	0.625379
423	H	0.245356	0.827519	0.382016
424	H	0.283045	0.696853	0.605792
425	C	0.194353	0.713288	0.622219
426	C	0.272171	0.749852	0.423068
427	O	0.187436	0.712965	0.582553
428	O	0.177702	0.685095	0.641783
429	H	0.178486	0.682044	0.670976
430	O	0.298075	0.768303	0.445563
431	O	0.243719	0.732353	0.441684
432	H	0.238924	0.736578	0.468959
433	C	0.300373	0.595009	0.340656
434	C	0.297787	0.575416	0.635668
435	N	0.280825	0.540238	0.638111
436	C	0.26589	0.521363	0.342497
437	C	0.267715	0.53996	0.382327
438	C	0.285093	0.576818	0.38062
439	H	0.28745	0.590727	0.409087
440	C	0.248789	0.984217	0.338902
441	C	0.260406	0.965537	0.645277
442	C	0.240482	0.92869	0.644775
443	C	0.209455	0.910028	0.336592
444	C	0.199261	0.930209	0.362181
445	N	0.21872	0.96536	0.362221
446	H	0.248729	0.915186	0.625379
447	H	0.177638	0.918867	0.382016
448	H	0.308303	0.587221	0.605795
449	C	0.29187	0.982095	0.622222
450	C	0.255302	0.523348	0.423068
451	O	0.292192	0.9755	0.582553
452	O	0.32006	0.493636	0.641783
453	H	0.323113	0.497473	0.670979
454	O	0.236847	0.530798	0.445563
455	O	0.272799	0.012395	0.441687
456	H	0.268573	0.003375	0.468963
457	C	0.410148	0.706395	0.340656
458	C	0.42974	0.723407	0.635668
459	N	0.464916	0.741622	0.638111
460	C	0.483793	0.74556	0.342497
461	C	0.465196	0.728784	0.382327
462	C	0.428339	0.709303	0.380617
463	H	0.414429	0.697748	0.409087
464	C	0.095127	0.800455	0.336592
465	H	0.417934	0.722119	0.605798
466	C	0.481808	0.73298	0.423068
467	O	0.511524	0.82746	0.641783
468	H	0.507689	0.826677	0.670979
469	O	0.474357	0.707073	0.445557
470	O	0.992761	0.761431	0.441687
471	H	0.00178	0.766222	0.468963
472	C	0.132489	0.817949	0.669912
473	C	0.152746	0.854737	0.669955
474	C	0.189587	0.872668	0.669912
475	C	0.206117	0.852409	0.669955
476	C	0.187208	0.815569	0.669912
477	C	0.150418	0.799038	0.669955
478	H	0.232701	0.864838	0.670049
479	H	0.136264	0.772455	0.670049
480	H	0.140319	0.868893	0.670049
481	C	0.373326	0.687571	0.6727
482	C	0.355125	0.650815	0.672767
483	C	0.318372	0.63183	0.6727
484	C	0.299816	0.650032	0.672753
485	C	0.317584	0.686783	0.672696
486	C	0.354341	0.705338	0.672753
487	H	0.273154	0.636411	0.673239
488	H	0.367384	0.732002	0.673235
489	H	0.368744	0.637772	0.673242
490	C	0.298762	0.704782	0.673985
491	C	0.281756	0.70737	0.968997
492	N	0.26354	0.724331	0.97144
493	C	0.259599	0.739265	0.675829
494	C	0.27637	0.737439	0.715659
495	C	0.29585	0.720062	0.713949
496	H	0.307402	0.717702	0.742419
497	C	0.239556	0.756368	0.672234
498	C	0.209258	0.744751	0.978609
499	C	0.192336	0.764674	0.978111
500	C	0.2047	0.7957	0.669928
501	C	0.235076	0.805897	0.695513
502	N	0.250767	0.786434	0.695554
503	H	0.170584	0.756428	0.958711
504	H	0.245356	0.827519	0.715348
505	H	0.283045	0.696853	0.939124
506	C	0.194353	0.713288	0.955555
507	C	0.272171	0.749852	0.7564
508	O	0.187436	0.712965	0.915885
509	O	0.177702	0.685095	0.975115
510	H	0.178486	0.682044	0.00431
511	O	0.298075	0.768303	0.778896
512	O	0.243719	0.732353	0.775017
513	H	0.238924	0.736578	0.802292
514	C	0.300373	0.595009	0.673988
515	C	0.297787	0.575416	0.969
516	N	0.280825	0.540238	0.971443
517	C	0.26589	0.521363	0.675829
518	C	0.267715	0.53996	0.715663
519	C	0.285093	0.576818	0.713952
520	H	0.28745	0.590727	0.742423
521	C	0.248789	0.984217	0.672238
522	C	0.260406	0.965537	0.978613
523	C	0.240482	0.92869	0.978111
524	C	0.209455	0.910028	0.669925
525	C	0.199261	0.930209	0.695513
526	N	0.21872	0.96536	0.695554
527	H	0.248729	0.915186	0.958714
528	H	0.177638	0.918867	0.715348
529	H	0.308303	0.587221	0.939131
530	C	0.29187	0.982095	0.955555
531	C	0.255302	0.523348	0.756403
532	O	0.292192	0.9755	0.915885
533	O	0.32006	0.493636	0.975118
534	H	0.323113	0.497473	0.004312
535	O	0.236847	0.530798	0.778896
536	O	0.272799	0.012395	0.77502
537	H	0.268573	0.003375	0.802295
538	C	0.410148	0.706395	0.673988
539	C	0.42974	0.723407	0.969003
540	N	0.464916	0.741622	0.971447
541	C	0.483793	0.74556	0.675829
542	C	0.465196	0.728784	0.715659
543	C	0.428339	0.709303	0.713952
544	H	0.414429	0.697748	0.742419
545	C	0.095127	0.800455	0.669925
546	H	0.417934	0.722119	0.939131
547	C	0.481808	0.73298	0.7564
548	O	0.511524	0.82746	0.975118
549	H	0.507689	0.826677	0.004312
550	O	0.474357	0.707073	0.778892
551	O	0.992761	0.761431	0.775023
552	H	0.00178	0.766222	0.802299
553	C	0.632487	0.317948	0.003245
554	C	0.652745	0.354739	0.003288
555	C	0.689587	0.372669	0.003247
556	C	0.706117	0.35241	0.003289
557	C	0.687207	0.315568	0.003247
558	C	0.65042	0.299039	0.003288
559	H	0.7327	0.364837	0.003384
560	H	0.636263	0.272456	0.003382
561	H	0.640317	0.368892	0.003382
562	C	0.873326	0.187571	0.006034
563	C	0.855124	0.150815	0.006102
564	C	0.81837	0.13183	0.006035
565	C	0.799815	0.150031	0.006087
566	C	0.817584	0.186784	0.006031
567	C	0.854341	0.20534	0.006085
568	H	0.773154	0.136412	0.006572
569	H	0.867384	0.232002	0.00657
570	H	0.868743	0.137773	0.006576
571	C	0.798761	0.204783	0.007319
572	C	0.781755	0.20737	0.302331
573	N	0.76354	0.224332	0.304775
574	C	0.759599	0.239266	0.009162
575	C	0.77637	0.237439	0.048993
576	C	0.795851	0.220062	0.047284
577	H	0.807402	0.217704	0.075752
578	C	0.739555	0.256368	0.005569
579	C	0.709259	0.244751	0.311944
580	C	0.692336	0.264676	0.311443
581	C	0.704698	0.295699	0.003262
582	C	0.735076	0.305896	0.028848
583	N	0.750768	0.286436	0.028886
584	H	0.670584	0.256429	0.292047
585	H	0.745355	0.327518	0.048684
586	H	0.783046	0.196854	0.272459
587	C	0.694351	0.213287	0.288887
588	C	0.77217	0.249851	0.089735
589	O	0.687437	0.212966	0.249219
590	O	0.677703	0.185096	0.308449
591	H	0.678486	0.182044	0.337643
592	O	0.798075	0.268305	0.11223
593	O	0.743719	0.232354	0.108351
594	H	0.738923	0.236578	0.135627
595	C	0.800372	0.095009	0.007323
596	C	0.797787	0.075416	0.302335
597	N	0.780824	0.040239	0.304777
598	C	0.76589	0.021363	0.009164
599	C	0.767716	0.039961	0.048996
600	C	0.785092	0.076818	0.047287
601	H	0.787449	0.090727	0.075755
602	C	0.748787	0.484216	0.00557
603	C	0.760405	0.465536	0.311945
604	C	0.740482	0.428691	0.311444
605	C	0.709457	0.410029	0.00326
606	C	0.699259	0.430208	0.028848
607	N	0.718722	0.465362	0.028887
608	H	0.748728	0.415185	0.292047
609	H	0.677636	0.418866	0.048684
610	H	0.808303	0.087222	0.272463
611	C	0.791871	0.482096	0.288889
612	C	0.755303	0.023348	0.089736
613	O	0.792192	0.475502	0.24922
614	O	0.820061	0.993637	0.308451
615	H	0.823114	0.997471	0.337647
616	O	0.736847	0.030799	0.11223
617	O	0.7728	0.512394	0.108355
618	H	0.768574	0.503375	0.13563
619	C	0.910147	0.206394	0.007321
620	C	0.92974	0.223407	0.302336
621	N	0.964918	0.241623	0.304779
622	C	0.983794	0.24556	0.009164
623	C	0.965196	0.228784	0.048994
624	C	0.928338	0.209303	0.047285
625	H	0.914428	0.197748	0.075752
626	C	0.520938	0.265605	0.00557
627	C	0.53962	0.295902	0.311945
628	C	0.576464	0.312821	0.311442
629	C	0.595126	0.300457	0.003258
630	C	0.574946	0.270081	0.028847
631	N	0.539795	0.254391	0.028886
632	H	0.589972	0.334573	0.292046
633	H	0.58629	0.259801	0.048681
634	H	0.917934	0.222121	0.272465
635	C	0.523062	0.310808	0.288889
636	C	0.981807	0.232981	0.089734
637	O	0.529655	0.317722	0.24922
638	O	0.974357	0.207075	0.112225
639	O	0.492761	0.261429	0.108356
640	H	0.501779	0.266224	0.135631
641	C	0.632487	0.317948	0.336579
642	C	0.652745	0.354739	0.336623
643	C	0.689587	0.372669	0.336579
644	C	0.706117	0.35241	0.336623
645	C	0.687207	0.315568	0.336579
646	C	0.65042	0.299039	0.336619
647	H	0.7327	0.364837	0.336716
648	H	0.636263	0.272456	0.336716
649	H	0.640317	0.368892	0.336716
650	C	0.873326	0.187571	0.339367
651	C	0.855124	0.150815	0.339434
652	C	0.81837	0.13183	0.339367
653	C	0.799815	0.150031	0.339421
654	C	0.817584	0.186784	0.339364
655	C	0.854341	0.20534	0.339417
656	H	0.773154	0.136412	0.339906
657	H	0.867384	0.232002	0.339903
658	H	0.868743	0.137773	0.339909
659	C	0.798761	0.204783	0.340652
660	C	0.781755	0.20737	0.635664
661	N	0.76354	0.224332	0.638108
662	C	0.759599	0.239266	0.342493
663	C	0.77637	0.237439	0.382327
664	C	0.795851	0.220062	0.380617
665	H	0.807402	0.217704	0.409087
666	C	0.739555	0.256368	0.338902
667	C	0.709259	0.244751	0.645277
668	C	0.692336	0.264676	0.644775
669	C	0.704698	0.295699	0.336596
670	C	0.735076	0.305896	0.362181
671	N	0.750768	0.286436	0.362218
672	H	0.670584	0.256429	0.625379
673	H	0.745355	0.327518	0.382016
674	H	0.783046	0.196854	0.605792
675	C	0.694351	0.213287	0.622219
676	C	0.77217	0.249851	0.423068
677	O	0.687437	0.212966	0.582553
678	O	0.677703	0.185096	0.641783
679	H	0.678486	0.182044	0.670976
680	O	0.798075	0.268305	0.445563
681	O	0.743719	0.232354	0.441684
682	H	0.738923	0.236578	0.468959
683	C	0.800372	0.095009	0.340656
684	C	0.797787	0.075416	0.635668
685	N	0.780824	0.040239	0.638111
686	C	0.76589	0.021363	0.342497
687	C	0.767716	0.039961	0.382327
688	C	0.785092	0.076818	0.38062
689	H	0.787449	0.090727	0.409087
690	C	0.748787	0.484216	0.338902
691	C	0.760405	0.465536	0.645277
692	C	0.740482	0.428691	0.644775
693	C	0.709457	0.410029	0.336592
694	C	0.699259	0.430208	0.362181
695	N	0.718722	0.465362	0.362221
696	H	0.748728	0.415185	0.625379
697	H	0.677636	0.418866	0.382016
698	H	0.808303	0.087222	0.605795
699	C	0.791871	0.482096	0.622222
700	C	0.755303	0.023348	0.423068
701	O	0.792192	0.475502	0.582553
702	O	0.820061	0.993637	0.641783
703	H	0.823114	0.997471	0.670979
704	O	0.736847	0.030799	0.445563
705	O	0.7728	0.512394	0.441687
706	H	0.768574	0.503375	0.468963
707	C	0.910147	0.206394	0.340656
708	C	0.92974	0.223407	0.635668
709	N	0.964918	0.241623	0.638111
710	C	0.983794	0.24556	0.342497
711	C	0.965196	0.228784	0.382327
712	C	0.928338	0.209303	0.380617
713	H	0.914428	0.197748	0.409087
714	C	0.520938	0.265605	0.338902
715	C	0.53962	0.295902	0.645277
716	C	0.576464	0.312821	0.644775
717	C	0.595126	0.300457	0.336592
718	C	0.574946	0.270081	0.362181
719	N	0.539795	0.254391	0.362218
720	H	0.589972	0.334573	0.625379
721	H	0.58629	0.259801	0.382016
722	H	0.917934	0.222121	0.605798
723	C	0.523062	0.310808	0.622222
724	C	0.981807	0.232981	0.423068
725	O	0.529655	0.317722	0.582553
726	O	0.974357	0.207075	0.445557
727	O	0.492761	0.261429	0.441687
728	H	0.501779	0.266224	0.468963
729	C	0.632487	0.317948	0.669912
730	C	0.652745	0.354739	0.669955
731	C	0.689587	0.372669	0.669912
732	C	0.706117	0.35241	0.669955
733	C	0.687207	0.315568	0.669912
734	C	0.65042	0.299039	0.669955
735	H	0.7327	0.364837	0.670049
736	H	0.636263	0.272456	0.670049
737	H	0.640317	0.368892	0.670049
738	C	0.873326	0.187571	0.6727
739	C	0.855124	0.150815	0.672767
740	C	0.81837	0.13183	0.6727
741	C	0.799815	0.150031	0.672753
742	C	0.817584	0.186784	0.672696
743	C	0.854341	0.20534	0.672753
744	H	0.773154	0.136412	0.673239
745	H	0.867384	0.232002	0.673235
746	H	0.868743	0.137773	0.673242
747	C	0.798761	0.204783	0.673985
748	C	0.781755	0.20737	0.968997
749	N	0.76354	0.224332	0.97144
750	C	0.759599	0.239266	0.675829
751	C	0.77637	0.237439	0.715659
752	C	0.795851	0.220062	0.713949
753	H	0.807402	0.217704	0.742419
754	C	0.739555	0.256368	0.672234
755	C	0.709259	0.244751	0.978609
756	C	0.692336	0.264676	0.978111
757	C	0.704698	0.295699	0.669928
758	C	0.735076	0.305896	0.695513
759	N	0.750768	0.286436	0.695554
760	H	0.670584	0.256429	0.958711
761	H	0.745355	0.327518	0.715348
762	H	0.783046	0.196854	0.939124
763	C	0.694351	0.213287	0.955555
764	C	0.77217	0.249851	0.7564
765	O	0.687437	0.212966	0.915885
766	O	0.677703	0.185096	0.975115
767	H	0.678486	0.182044	0.00431
768	O	0.798075	0.268305	0.778896
769	O	0.743719	0.232354	0.775017
770	H	0.738923	0.236578	0.802292
771	C	0.800372	0.095009	0.673988
772	C	0.797787	0.075416	0.969
773	N	0.780824	0.040239	0.971443
774	C	0.76589	0.021363	0.675829
775	C	0.767716	0.039961	0.715663
776	C	0.785092	0.076818	0.713952
777	H	0.787449	0.090727	0.742423
778	C	0.748787	0.484216	0.672238
779	C	0.760405	0.465536	0.978613
780	C	0.740482	0.428691	0.978111
781	C	0.709457	0.410029	0.669925
782	C	0.699259	0.430208	0.695513
783	N	0.718722	0.465362	0.695554
784	H	0.748728	0.415185	0.958714
785	H	0.677636	0.418866	0.715348
786	H	0.808303	0.087222	0.939131
787	C	0.791871	0.482096	0.955555
788	C	0.755303	0.023348	0.756403
789	O	0.792192	0.475502	0.915885
790	O	0.820061	0.993637	0.975118
791	H	0.823114	0.997471	0.004312
792	O	0.736847	0.030799	0.778896
793	O	0.7728	0.512394	0.77502
794	H	0.768574	0.503375	0.802295
795	C	0.910147	0.206394	0.673988
796	C	0.92974	0.223407	0.969003
797	N	0.964918	0.241623	0.971447
798	C	0.983794	0.24556	0.675829
799	C	0.965196	0.228784	0.715659
800	C	0.928338	0.209303	0.713952
801	H	0.914428	0.197748	0.742419
802	C	0.520938	0.265605	0.672238
803	C	0.53962	0.295902	0.978609
804	C	0.576464	0.312821	0.978107
805	C	0.595126	0.300457	0.669925
806	C	0.574946	0.270081	0.695513
807	N	0.539795	0.254391	0.695554
808	H	0.589972	0.334573	0.958711
809	H	0.58629	0.259801	0.715348
810	H	0.917934	0.222121	0.939131
811	C	0.523062	0.310808	0.955555
812	C	0.981807	0.232981	0.7564
813	O	0.529655	0.317722	0.915885
814	O	0.974357	0.207075	0.778892
815	O	0.492761	0.261429	0.775023
816	H	0.501779	0.266224	0.802299
817	C	0.632488	0.817949	0.003245
818	C	0.652747	0.854737	0.003288
819	C	0.689589	0.872668	0.003247
820	C	0.706116	0.852409	0.003289
821	C	0.687208	0.815569	0.003247
822	C	0.650419	0.799038	0.003288
823	H	0.732701	0.864838	0.003384
824	H	0.636263	0.772455	0.003382
825	H	0.640319	0.868893	0.003382
826	C	0.873326	0.687571	0.006034
827	C	0.855124	0.650815	0.006102
828	C	0.818373	0.63183	0.006035
829	C	0.799816	0.650032	0.006087
830	C	0.817585	0.686783	0.006031
831	C	0.85434	0.705338	0.006085
832	H	0.773154	0.636411	0.006572
833	H	0.867384	0.732002	0.00657
834	H	0.868745	0.637772	0.006576
835	C	0.798762	0.704782	0.007319
836	C	0.781757	0.70737	0.302331
837	N	0.763539	0.724331	0.304775
838	C	0.759598	0.739265	0.009162
839	C	0.77637	0.737439	0.048993
840	C	0.79585	0.720062	0.047284
841	H	0.807401	0.717702	0.075752
842	C	0.739555	0.756368	0.005569
843	C	0.709259	0.744751	0.311944
844	C	0.692335	0.764674	0.311443
845	C	0.704699	0.7957	0.003262
846	C	0.735076	0.805897	0.028848
847	N	0.750768	0.786434	0.028886
848	H	0.670584	0.756428	0.292047
849	H	0.745356	0.827519	0.048684
850	H	0.783045	0.696853	0.272459
851	C	0.694354	0.713288	0.288887
852	C	0.772171	0.749852	0.089735
853	O	0.687436	0.712965	0.249219
854	O	0.677703	0.685095	0.308449
855	H	0.678486	0.682044	0.337643
856	O	0.798074	0.768303	0.11223
857	O	0.743718	0.732353	0.108351
858	H	0.738923	0.736578	0.135627
859	C	0.800374	0.595009	0.007323
860	C	0.797786	0.575416	0.302335
861	N	0.780824	0.540238	0.304777
862	C	0.765889	0.521363	0.009164
863	C	0.767715	0.53996	0.048996
864	C	0.785092	0.576818	0.047287
865	H	0.787451	0.590727	0.075755
866	C	0.74879	0.984217	0.00557
867	C	0.760406	0.965537	0.311945
868	C	0.740481	0.92869	0.311444
869	C	0.709456	0.910028	0.00326
870	C	0.69926	0.930209	0.028848
871	N	0.718721	0.96536	0.028887
872	H	0.748729	0.915186	0.292047
873	H	0.677638	0.918867	0.048684
874	H	0.808303	0.587221	0.272463
875	C	0.79187	0.982095	0.288889
876	C	0.755302	0.523348	0.089736
877	O	0.792191	0.9755	0.24922
878	O	0.82006	0.493636	0.308451
879	H	0.823112	0.497473	0.337647
880	O	0.736846	0.530798	0.11223
881	O	0.772798	0.012395	0.108355
882	H	0.768574	0.003375	0.13563
883	C	0.910148	0.706395	0.007321
884	C	0.92974	0.723407	0.302336
885	N	0.964917	0.741622	0.304779
886	C	0.983793	0.74556	0.009164
887	C	0.965196	0.728784	0.048994
888	C	0.928338	0.709303	0.047285
889	H	0.91443	0.697748	0.075752
890	C	0.520939	0.765603	0.00557
891	C	0.53962	0.795901	0.311945
892	C	0.576466	0.812822	0.311442
893	C	0.595127	0.800455	0.003258
894	C	0.574948	0.770082	0.028847
895	N	0.539795	0.754391	0.028886
896	H	0.589972	0.834574	0.292046
897	H	0.586289	0.759799	0.048681
898	H	0.917934	0.722119	0.272465
899	C	0.523063	0.810809	0.288889
900	C	0.981809	0.73298	0.089734
901	O	0.529656	0.817723	0.24922
902	O	0.974357	0.707073	0.112225
903	O	0.492761	0.761431	0.108356
904	H	0.50178	0.766222	0.135631
905	C	0.632488	0.817949	0.336579
906	C	0.652747	0.854737	0.336623
907	C	0.689589	0.872668	0.336579
908	C	0.706116	0.852409	0.336623
909	C	0.687208	0.815569	0.336579
910	C	0.650419	0.799038	0.336619
911	H	0.732701	0.864838	0.336716
912	H	0.636263	0.772455	0.336716
913	H	0.640319	0.868893	0.336716
914	C	0.873326	0.687571	0.339367
915	C	0.855124	0.650815	0.339434
916	C	0.818373	0.63183	0.339367
917	C	0.799816	0.650032	0.339421
918	C	0.817585	0.686783	0.339364
919	C	0.85434	0.705338	0.339417
920	H	0.773154	0.636411	0.339906
921	H	0.867384	0.732002	0.339903
922	H	0.868745	0.637772	0.339909
923	C	0.798762	0.704782	0.340652
924	C	0.781757	0.70737	0.635664
925	N	0.763539	0.724331	0.638108
926	C	0.759598	0.739265	0.342493
927	C	0.77637	0.737439	0.382327
928	C	0.79585	0.720062	0.380617
929	H	0.807401	0.717702	0.409087
930	C	0.739555	0.756368	0.338902
931	C	0.709259	0.744751	0.645277
932	C	0.692335	0.764674	0.644775
933	C	0.704699	0.7957	0.336596
934	C	0.735076	0.805897	0.362181
935	N	0.750768	0.786434	0.362218
936	H	0.670584	0.756428	0.625379
937	H	0.745356	0.827519	0.382016
938	H	0.783045	0.696853	0.605792
939	C	0.694354	0.713288	0.622219
940	C	0.772171	0.749852	0.423068
941	O	0.687436	0.712965	0.582553
942	O	0.677703	0.685095	0.641783
943	H	0.678486	0.682044	0.670976
944	O	0.798074	0.768303	0.445563
945	O	0.743718	0.732353	0.441684
946	H	0.738923	0.736578	0.468959
947	C	0.800374	0.595009	0.340656
948	C	0.797786	0.575416	0.635668
949	N	0.780824	0.540238	0.638111
950	C	0.765889	0.521363	0.342497
951	C	0.767715	0.53996	0.382327
952	C	0.785092	0.576818	0.38062
953	H	0.787451	0.590727	0.409087
954	C	0.74879	0.984217	0.338902
955	C	0.760406	0.965537	0.645277
956	C	0.740481	0.92869	0.644775
957	C	0.709456	0.910028	0.336592
958	C	0.69926	0.930209	0.362181
959	N	0.718721	0.96536	0.362221
960	H	0.748729	0.915186	0.625379
961	H	0.677638	0.918867	0.382016
962	H	0.808303	0.587221	0.605795
963	C	0.79187	0.982095	0.622222
964	C	0.755302	0.523348	0.423068
965	O	0.792191	0.9755	0.582553
966	O	0.82006	0.493636	0.641783
967	H	0.823112	0.497473	0.670979
968	O	0.736846	0.530798	0.445563
969	O	0.772798	0.012395	0.441687
970	H	0.768574	0.003375	0.468963
971	C	0.910148	0.706395	0.340656
972	C	0.92974	0.723407	0.635668
973	N	0.964917	0.741622	0.638111
974	C	0.983793	0.74556	0.342497
975	C	0.965196	0.728784	0.382327
976	C	0.928338	0.709303	0.380617
977	H	0.91443	0.697748	0.409087
978	C	0.520939	0.765603	0.338902
979	C	0.53962	0.795901	0.645277
980	C	0.576466	0.812822	0.644775
981	C	0.595127	0.800455	0.336592
982	C	0.574948	0.770082	0.362181
983	N	0.539795	0.754391	0.362218
984	H	0.589972	0.834574	0.625379
985	H	0.586289	0.759799	0.382016
986	H	0.917934	0.722119	0.605798
987	C	0.523063	0.810809	0.622222
988	C	0.981809	0.73298	0.423068
989	O	0.529656	0.817723	0.582553
990	O	0.974357	0.707073	0.445557
991	O	0.492761	0.761431	0.441687
992	H	0.50178	0.766222	0.468963
993	C	0.632488	0.817949	0.669912
994	C	0.652747	0.854737	0.669955
995	C	0.689589	0.872668	0.669912
996	C	0.706116	0.852409	0.669955
997	C	0.687208	0.815569	0.669912
998	C	0.650419	0.799038	0.669955
999	H	0.732701	0.864838	0.670049
1000	H	0.636263	0.772455	0.670049
1001	H	0.640319	0.868893	0.670049
1002	C	0.873326	0.687571	0.6727
1003	C	0.855124	0.650815	0.672767
1004	C	0.818373	0.63183	0.6727
1005	C	0.799816	0.650032	0.672753
1006	C	0.817585	0.686783	0.672696
1007	C	0.85434	0.705338	0.672753
1008	H	0.773154	0.636411	0.673239
1009	H	0.867384	0.732002	0.673235
1010	H	0.868745	0.637772	0.673242
1011	C	0.798762	0.704782	0.673985
1012	C	0.781757	0.70737	0.968997
1013	N	0.763539	0.724331	0.97144
1014	C	0.759598	0.739265	0.675829
1015	C	0.77637	0.737439	0.715659
1016	C	0.79585	0.720062	0.713949
1017	H	0.807401	0.717702	0.742419
1018	C	0.739555	0.756368	0.672234
1019	C	0.709259	0.744751	0.978609
1020	C	0.692335	0.764674	0.978111
1021	C	0.704699	0.7957	0.669928
1022	C	0.735076	0.805897	0.695513
1023	N	0.750768	0.786434	0.695554
1024	H	0.670584	0.756428	0.958711
1025	H	0.745356	0.827519	0.715348
1026	H	0.783045	0.696853	0.939124
1027	C	0.694354	0.713288	0.955555
1028	C	0.772171	0.749852	0.7564
1029	O	0.687436	0.712965	0.915885
1030	O	0.677703	0.685095	0.975115
1031	H	0.678486	0.682044	0.00431
1032	O	0.798074	0.768303	0.778896
1033	O	0.743718	0.732353	0.775017
1034	H	0.738923	0.736578	0.802292
1035	C	0.800374	0.595009	0.673988
1036	C	0.797786	0.575416	0.969
1037	N	0.780824	0.540238	0.971443
1038	C	0.765889	0.521363	0.675829
1039	C	0.767715	0.53996	0.715663
1040	C	0.785092	0.576818	0.713952
1041	H	0.787451	0.590727	0.742423
1042	C	0.74879	0.984217	0.672238
1043	C	0.760406	0.965537	0.978613
1044	C	0.740481	0.92869	0.978111
1045	C	0.709456	0.910028	0.669925
1046	C	0.69926	0.930209	0.695513
1047	N	0.718721	0.96536	0.695554
1048	H	0.748729	0.915186	0.958714
1049	H	0.677638	0.918867	0.715348
1050	H	0.808303	0.587221	0.939131
1051	C	0.79187	0.982095	0.955555
1052	C	0.755302	0.523348	0.756403
1053	O	0.792191	0.9755	0.915885
1054	O	0.82006	0.493636	0.975118
1055	H	0.823112	0.497473	0.004312
1056	O	0.736846	0.530798	0.778896
1057	O	0.772798	0.012395	0.77502
1058	H	0.768574	0.003375	0.802295
1059	C	0.910148	0.706395	0.673988
1060	C	0.92974	0.723407	0.969003
1061	N	0.964917	0.741622	0.971447
1062	C	0.983793	0.74556	0.675829
1063	C	0.965196	0.728784	0.715659
1064	C	0.928338	0.709303	0.713952
1065	H	0.91443	0.697748	0.742419
1066	C	0.520939	0.765603	0.672238
1067	C	0.53962	0.795901	0.978609
1068	C	0.576466	0.812822	0.978107
1069	C	0.595127	0.800455	0.669925
1070	C	0.574948	0.770082	0.695513
1071	N	0.539795	0.754391	0.695554
1072	H	0.589972	0.834574	0.958711
1073	H	0.586289	0.759799	0.715348
1074	H	0.917934	0.722119	0.939131
1075	C	0.523063	0.810809	0.955555
1076	C	0.981809	0.73298	0.7564
1077	O	0.529656	0.817723	0.915885
1078	O	0.974357	0.707073	0.778892
1079	O	0.492761	0.761431	0.775023
1080	H	0.50178	0.766222	0.802299
