data_C576H288N144_2018-02-15_10:40:27
#******************************************
#
# CIF file created by Zeo++
# Zeo++ is an open source package to
# analyze microporous materials
#
#*******************************************

_cell_length_a		44.8994   
_cell_length_b		44.9203   
_cell_length_c		29.5108   
_cell_angle_alpha		90   
_cell_angle_beta		90   
_cell_angle_gamma		119.989   

_symmetry_space_group_name_H-M		'P1'
_symmetry_Int_Tables_number		1
_symmetry_cell_setting		Monoclinic

loop_
_symmetry_equiv_pos_as_xyz
'+x,+y,+z'

loop_
_atom_site_label
_atom_site_type_symbol
_atom_site_fract_x
_atom_site_fract_y
_atom_site_fract_z
1	C	0.046297	0.0251	0.009509
2	C	0.027859	0.043022	0.009308
3	C	0.027875	0.488752	0.009582
4	H	0.041059	0.475585	0.008812
5	H	0.041032	0.069363	0.008457
6	C	0.082652	0.043277	0.340689
7	C	0.10041	0.052594	0.299002
8	C	0.136613	0.070731	0.298965
9	C	0.154432	0.079246	0.340611
10	N	0.135451	0.069332	0.046
11	H	0.149664	0.077558	0.268856
12	H	0.087316	0.046331	0.268925
13	N	0.101691	0.052419	0.046031
14	C	0.046297	0.0251	0.342844
15	C	0.027859	0.043022	0.342641
16	C	0.027875	0.488752	0.342915
17	H	0.041059	0.475585	0.342146
18	H	0.041032	0.069363	0.34179
19	C	0.082652	0.043277	0.674021
20	C	0.10041	0.052594	0.632335
21	C	0.136613	0.070731	0.632297
22	C	0.154432	0.079246	0.673943
23	N	0.135451	0.069332	0.379332
24	H	0.149664	0.077558	0.60219
25	H	0.087316	0.046331	0.602258
26	N	0.101691	0.052419	0.379363
27	C	0.046297	0.0251	0.676176
28	C	0.027859	0.043022	0.675976
29	C	0.027875	0.488752	0.676248
30	H	0.041059	0.475585	0.675478
31	H	0.041032	0.069363	0.675122
32	C	0.082652	0.043277	0.007357
33	C	0.10041	0.052594	0.965667
34	C	0.136613	0.070731	0.96563
35	C	0.154432	0.079246	0.007279
36	N	0.135451	0.069332	0.712665
37	H	0.149664	0.077558	0.935522
38	H	0.087316	0.046331	0.93559
39	N	0.101691	0.052419	0.712699
40	C	0.046298	0.525101	0.009509
41	C	0.027859	0.543024	0.009308
42	C	0.027876	0.988755	0.009582
43	H	0.041059	0.975585	0.008812
44	H	0.041031	0.569364	0.008457
45	C	0.082653	0.543278	0.340689
46	C	0.100411	0.552595	0.299002
47	C	0.136613	0.570731	0.298965
48	C	0.154432	0.579246	0.340611
49	N	0.135451	0.569333	0.046
50	H	0.149664	0.577558	0.268856
51	H	0.087316	0.546331	0.268925
52	N	0.101692	0.55242	0.046031
53	C	0.046298	0.525101	0.342841
54	C	0.027859	0.543024	0.342641
55	C	0.027876	0.988755	0.342915
56	H	0.041059	0.975585	0.342146
57	H	0.041031	0.569364	0.34179
58	C	0.082653	0.543278	0.674021
59	C	0.100411	0.552595	0.632335
60	C	0.136613	0.570731	0.632297
61	C	0.154432	0.579246	0.673943
62	N	0.135451	0.569333	0.379332
63	H	0.149664	0.577558	0.60219
64	H	0.087316	0.546331	0.602258
65	N	0.101692	0.55242	0.379363
66	C	0.046298	0.525101	0.676176
67	C	0.027859	0.543024	0.675976
68	C	0.027876	0.988755	0.676248
69	H	0.041059	0.975585	0.675478
70	H	0.041031	0.569364	0.675122
71	C	0.082653	0.543278	0.007357
72	C	0.100411	0.552595	0.965667
73	C	0.136613	0.570731	0.96563
74	C	0.154432	0.579246	0.007279
75	N	0.135451	0.569333	0.712665
76	H	0.149664	0.577558	0.935522
77	H	0.087316	0.546331	0.93559
78	N	0.101692	0.55242	0.712699
79	C	0.245475	0.097312	0.008824
80	C	0.263104	0.133584	0.00857
81	C	0.245456	0.152223	0.008711
82	C	0.209136	0.133883	0.009149
83	C	0.190782	0.097429	0.009265
84	C	0.209157	0.079338	0.009317
85	H	0.196073	0.147156	0.008699
86	H	0.19611	0.053011	0.008942
87	H	0.289526	0.146791	0.008445
88	C	0.328217	0.081231	0.008282
89	C	0.310294	0.076455	0.049453
90	C	0.278935	0.076525	0.049456
91	C	0.265729	0.081231	0.008296
92	N	0.284643	0.085708	0.303629
93	H	0.268421	0.07756	0.079788
94	H	0.321892	0.077575	0.079773
95	N	0.313776	0.085715	0.303622
96	C	0.265698	0.188546	0.008163
97	C	0.278828	0.206475	0.04933
98	C	0.310262	0.23781	0.049339
99	C	0.328197	0.250988	0.00819
100	N	0.313778	0.232068	0.303529
101	H	0.321794	0.248328	0.079675
102	H	0.268336	0.194899	0.07965
103	N	0.28465	0.20296	0.303518
104	C	0.245475	0.097312	0.342156
105	C	0.263104	0.133584	0.341902
106	C	0.245456	0.152223	0.342044
107	C	0.209136	0.133883	0.342481
108	C	0.190782	0.097429	0.3426
109	C	0.209157	0.079338	0.342651
110	H	0.196073	0.147156	0.342031
111	H	0.19611	0.053011	0.342275
112	H	0.289526	0.146791	0.34178
113	C	0.328217	0.081231	0.341614
114	C	0.310294	0.076455	0.382785
115	C	0.278935	0.076525	0.382789
116	C	0.265729	0.081231	0.341628
117	N	0.284643	0.085708	0.636964
118	H	0.268421	0.07756	0.413123
119	H	0.321892	0.077575	0.413106
120	N	0.313776	0.085715	0.636957
121	C	0.265698	0.188546	0.341495
122	C	0.278828	0.206475	0.382663
123	C	0.310262	0.23781	0.382674
124	C	0.328197	0.250988	0.341523
125	N	0.313778	0.232068	0.636862
126	H	0.321794	0.248328	0.413008
127	H	0.268336	0.194899	0.412984
128	N	0.28465	0.20296	0.636852
129	C	0.245475	0.097312	0.675492
130	C	0.263104	0.133584	0.675238
131	C	0.245456	0.152223	0.675377
132	C	0.209136	0.133883	0.675814
133	C	0.190782	0.097429	0.675932
134	C	0.209157	0.079338	0.675983
135	H	0.196073	0.147156	0.675366
136	H	0.19611	0.053011	0.67561
137	H	0.289526	0.146791	0.675112
138	C	0.328217	0.081231	0.674946
139	C	0.310294	0.076455	0.716121
140	C	0.278935	0.076525	0.716124
141	C	0.265729	0.081231	0.674963
142	N	0.284643	0.085708	0.970296
143	H	0.268421	0.07756	0.746456
144	H	0.321892	0.077575	0.746439
145	N	0.313776	0.085715	0.970289
146	C	0.265698	0.188546	0.674831
147	C	0.278828	0.206475	0.715996
148	C	0.310262	0.23781	0.716006
149	C	0.328197	0.250988	0.674855
150	N	0.313778	0.232068	0.970194
151	H	0.321794	0.248328	0.74634
152	H	0.268336	0.194899	0.746317
153	N	0.28465	0.20296	0.970184
154	C	0.245476	0.597313	0.008824
155	C	0.263104	0.633584	0.00857
156	C	0.245457	0.652224	0.008711
157	C	0.209136	0.633883	0.009149
158	C	0.190783	0.597431	0.009265
159	C	0.209157	0.579339	0.009317
160	H	0.196073	0.647155	0.008699
161	H	0.196111	0.553012	0.008942
162	H	0.289525	0.646791	0.008445
163	C	0.328218	0.581231	0.008282
164	C	0.310295	0.576455	0.049453
165	C	0.278936	0.576527	0.049456
166	C	0.265728	0.581231	0.008296
167	N	0.284643	0.585708	0.303629
168	H	0.26842	0.57756	0.079788
169	H	0.321893	0.577576	0.079773
170	N	0.313776	0.585716	0.303622
171	C	0.265699	0.688547	0.008163
172	C	0.278828	0.706475	0.04933
173	C	0.310261	0.737809	0.049339
174	C	0.328197	0.750989	0.00819
175	N	0.313778	0.73207	0.303529
176	H	0.321795	0.748329	0.079675
177	H	0.268336	0.694901	0.07965
178	N	0.284651	0.702961	0.303518
179	C	0.245476	0.597313	0.342156
180	C	0.263104	0.633584	0.341902
181	C	0.245457	0.652224	0.342044
182	C	0.209136	0.633883	0.342481
183	C	0.190783	0.597431	0.3426
184	C	0.209157	0.579339	0.342651
185	H	0.196073	0.647155	0.342031
186	H	0.196111	0.553012	0.342275
187	H	0.289525	0.646791	0.34178
188	C	0.328218	0.581231	0.341614
189	C	0.310295	0.576455	0.382785
190	C	0.278936	0.576527	0.382789
191	C	0.265728	0.581231	0.341628
192	N	0.284643	0.585708	0.636964
193	H	0.26842	0.57756	0.413123
194	H	0.321893	0.577576	0.413106
195	N	0.313776	0.585716	0.636957
196	C	0.265699	0.688547	0.341495
197	C	0.278828	0.706475	0.382663
198	C	0.310261	0.737809	0.382674
199	C	0.328197	0.750989	0.341523
200	N	0.313778	0.73207	0.636862
201	H	0.321795	0.748329	0.413008
202	H	0.268336	0.694901	0.412984
203	N	0.284651	0.702961	0.636852
204	C	0.245476	0.597313	0.675492
205	C	0.263104	0.633584	0.675238
206	C	0.245457	0.652224	0.675377
207	C	0.209136	0.633883	0.675814
208	C	0.190783	0.597431	0.675932
209	C	0.209157	0.579339	0.675983
210	H	0.196073	0.647155	0.675366
211	H	0.196111	0.553012	0.67561
212	H	0.289525	0.646791	0.675112
213	C	0.328218	0.581231	0.674946
214	C	0.310295	0.576455	0.716121
215	C	0.278936	0.576527	0.716124
216	C	0.265728	0.581231	0.674963
217	N	0.284643	0.585708	0.970296
218	H	0.26842	0.57756	0.746456
219	H	0.321893	0.577576	0.746439
220	N	0.313776	0.585716	0.970289
221	C	0.265699	0.688547	0.674831
222	C	0.278828	0.706475	0.715996
223	C	0.310261	0.737809	0.716006
224	C	0.328197	0.750989	0.674855
225	N	0.313778	0.73207	0.970194
226	H	0.321795	0.748329	0.74634
227	H	0.268336	0.694901	0.746317
228	N	0.284651	0.702961	0.970184
229	C	0.364556	0.097322	0.0088
230	H	0.369628	0.05303	0.008931
231	H	0.369974	0.146794	0.008429
232	C	0.364535	0.271233	0.008745
233	H	0.369569	0.320577	0.00879
234	H	0.37	0.227202	0.008453
235	C	0.364556	0.097322	0.342132
236	H	0.369628	0.05303	0.342265
237	H	0.369974	0.146794	0.341763
238	C	0.364535	0.271233	0.342078
239	H	0.369569	0.320577	0.342122
240	H	0.37	0.227202	0.341787
241	C	0.364556	0.097322	0.675468
242	H	0.369628	0.05303	0.675597
243	H	0.369974	0.146794	0.675095
244	C	0.364535	0.271233	0.675411
245	H	0.369569	0.320577	0.675455
246	H	0.37	0.227202	0.675119
247	C	0.364556	0.597323	0.0088
248	H	0.36963	0.553032	0.008931
249	H	0.369974	0.646796	0.008429
250	C	0.364535	0.771233	0.008745
251	H	0.36957	0.820579	0.008789
252	H	0.370001	0.727201	0.008453
253	C	0.364556	0.597323	0.342132
254	H	0.36963	0.553032	0.342265
255	H	0.369974	0.646796	0.341763
256	C	0.364535	0.771233	0.342078
257	H	0.36957	0.820579	0.342122
258	H	0.370001	0.727201	0.341787
259	C	0.364556	0.597323	0.675468
260	H	0.36963	0.553032	0.675597
261	H	0.369974	0.646796	0.675095
262	C	0.364535	0.771233	0.675411
263	H	0.36957	0.820579	0.675455
264	H	0.370001	0.727201	0.675119
265	C	0.491498	0.025099	0.009476
266	C	0.47357	0.488752	0.009515
267	C	0.49151	0.470331	0.009635
268	H	0.447216	0.475582	0.008748
269	C	0.419484	0.152244	0.008701
270	C	0.383194	0.133595	0.008545
271	C	0.382907	0.079357	0.009303
272	C	0.419375	0.097458	0.009249
273	C	0.437469	0.133912	0.009135
274	H	0.463809	0.147191	0.008691
275	C	0.3832	0.253611	0.008563
276	C	0.419492	0.271248	0.008765
277	C	0.43745	0.307551	0.00925
278	C	0.419334	0.3259	0.009271
279	C	0.382865	0.307535	0.009195
280	H	0.463789	0.320605	0.00888
281	C	0.473324	0.04328	0.340658
282	C	0.464911	0.052627	0.298976
283	C	0.446859	0.070776	0.298945
284	C	0.437545	0.079278	0.340594
285	N	0.446583	0.069334	0.045977
286	H	0.440652	0.077621	0.268837
287	H	0.471749	0.046375	0.268898
288	N	0.463419	0.05241	0.046004
289	C	0.473344	0.43399	0.340797
290	C	0.464386	0.41626	0.299089
291	C	0.446306	0.380074	0.299017
292	C	0.437497	0.362238	0.340652
293	N	0.447065	0.381194	0.046059
294	H	0.439723	0.367042	0.268892
295	H	0.470862	0.429361	0.269019
296	N	0.463926	0.414939	0.046123
297	C	0.435618	0.251021	0.008265
298	C	0.440447	0.237914	0.049413
299	C	0.440348	0.206481	0.049347
300	C	0.435559	0.188567	0.008167
301	N	0.43101	0.202995	0.303542
302	H	0.439358	0.194935	0.079661
303	H	0.439368	0.248395	0.079743
304	N	0.431025	0.232121	0.30356
305	C	0.491498	0.025099	0.34281
306	C	0.47357	0.488752	0.342847
307	C	0.49151	0.470331	0.342969
308	H	0.447216	0.475582	0.342082
309	C	0.419484	0.152244	0.342034
310	C	0.383194	0.133595	0.341878
311	C	0.382907	0.079357	0.342637
312	C	0.419375	0.097458	0.342583
313	C	0.437469	0.133912	0.342468
314	H	0.463809	0.147191	0.342024
315	C	0.3832	0.253611	0.341895
316	C	0.419492	0.271248	0.342099
317	C	0.43745	0.307551	0.342583
318	C	0.419334	0.3259	0.342603
319	C	0.382865	0.307535	0.342529
320	H	0.463789	0.320605	0.342214
321	C	0.473324	0.04328	0.673994
322	C	0.464911	0.052627	0.632311
323	C	0.446859	0.070776	0.632277
324	C	0.437545	0.079278	0.673926
325	N	0.446583	0.069334	0.379312
326	H	0.440652	0.077621	0.60217
327	H	0.471749	0.046375	0.602231
328	N	0.463419	0.05241	0.379336
329	C	0.473344	0.43399	0.67413
330	C	0.464386	0.41626	0.632423
331	C	0.446306	0.380074	0.632352
332	C	0.437497	0.362238	0.673984
333	N	0.447065	0.381194	0.379393
334	H	0.439723	0.367042	0.602224
335	H	0.470862	0.429361	0.602353
336	N	0.463926	0.414939	0.379458
337	C	0.435618	0.251021	0.341597
338	C	0.440447	0.237914	0.382745
339	C	0.440348	0.206481	0.38268
340	C	0.435559	0.188567	0.341502
341	N	0.43101	0.202995	0.636875
342	H	0.439358	0.194935	0.412995
343	H	0.439368	0.248395	0.413076
344	N	0.431025	0.232121	0.636892
345	C	0.491498	0.025099	0.676142
346	C	0.47357	0.488752	0.67618
347	C	0.49151	0.470331	0.676302
348	H	0.447216	0.475582	0.675414
349	C	0.419484	0.152244	0.675366
350	C	0.383194	0.133595	0.675211
351	C	0.382907	0.079357	0.67597
352	C	0.419375	0.097458	0.675915
353	C	0.437469	0.133912	0.6758
354	H	0.463809	0.147191	0.675356
355	C	0.3832	0.253611	0.675231
356	C	0.419492	0.271248	0.675431
357	C	0.43745	0.307551	0.675915
358	C	0.419334	0.3259	0.675939
359	C	0.382865	0.307535	0.675861
360	H	0.463789	0.320605	0.675546
361	C	0.473324	0.04328	0.007326
362	C	0.464911	0.052627	0.965643
363	C	0.446859	0.070776	0.965613
364	C	0.437545	0.079278	0.007259
365	N	0.446583	0.069334	0.712644
366	H	0.440652	0.077621	0.935505
367	H	0.471749	0.046375	0.935563
368	N	0.463419	0.05241	0.712671
369	C	0.473344	0.43399	0.007462
370	C	0.464386	0.41626	0.965755
371	C	0.446306	0.380074	0.965684
372	C	0.437497	0.362238	0.007316
373	N	0.447065	0.381194	0.712726
374	H	0.439723	0.367042	0.935559
375	H	0.470862	0.429361	0.935685
376	N	0.463926	0.414939	0.71279
377	C	0.435618	0.251021	0.674933
378	C	0.440447	0.237914	0.71608
379	C	0.440348	0.206481	0.716013
380	C	0.435559	0.188567	0.674834
381	N	0.43101	0.202995	0.970208
382	H	0.439358	0.194935	0.746327
383	H	0.439368	0.248395	0.746408
384	N	0.431025	0.232121	0.970228
385	C	0.491497	0.525101	0.009476
386	C	0.473569	0.988752	0.009515
387	C	0.491511	0.970331	0.009635
388	H	0.447216	0.975582	0.008748
389	C	0.419484	0.652245	0.008701
390	C	0.383194	0.633595	0.008545
391	C	0.382906	0.579357	0.009303
392	C	0.419375	0.597459	0.009249
393	C	0.437471	0.633913	0.009135
394	H	0.463808	0.647191	0.008691
395	C	0.383201	0.753611	0.008563
396	C	0.419492	0.771248	0.008765
397	C	0.437452	0.807553	0.00925
398	C	0.419334	0.825902	0.009271
399	C	0.382864	0.807535	0.009194
400	H	0.463791	0.820608	0.00888
401	C	0.473325	0.543281	0.340658
402	C	0.46491	0.552626	0.298977
403	C	0.446858	0.570775	0.298945
404	C	0.437544	0.579277	0.340594
405	N	0.446585	0.569335	0.045977
406	H	0.44065	0.577619	0.268837
407	H	0.471749	0.546375	0.268898
408	N	0.463418	0.55241	0.046004
409	C	0.473346	0.933993	0.340797
410	C	0.464385	0.91626	0.299089
411	C	0.446305	0.880073	0.299017
412	C	0.437496	0.862238	0.340652
413	N	0.447065	0.881194	0.046059
414	H	0.439723	0.867045	0.268892
415	H	0.470862	0.929363	0.269019
416	N	0.463926	0.914939	0.046123
417	C	0.435619	0.751023	0.008265
418	C	0.440447	0.737914	0.049413
419	C	0.440348	0.706482	0.049347
420	C	0.435559	0.688568	0.008167
421	N	0.431009	0.702995	0.303542
422	H	0.439357	0.694934	0.079661
423	H	0.439368	0.748396	0.079743
424	N	0.431025	0.732121	0.30356
425	C	0.491497	0.525101	0.34281
426	C	0.473569	0.988752	0.342847
427	C	0.491511	0.970331	0.342969
428	H	0.447216	0.975582	0.342082
429	C	0.419484	0.652245	0.342034
430	C	0.383194	0.633595	0.341878
431	C	0.382906	0.579357	0.342637
432	C	0.419375	0.597459	0.342583
433	C	0.437471	0.633913	0.342468
434	H	0.463808	0.647191	0.342024
435	C	0.383201	0.753611	0.341895
436	C	0.419492	0.771248	0.342099
437	C	0.437452	0.807553	0.342583
438	C	0.419334	0.825902	0.342603
439	C	0.382864	0.807535	0.342529
440	H	0.463791	0.820608	0.342214
441	C	0.473325	0.543281	0.673994
442	C	0.46491	0.552626	0.632311
443	C	0.446858	0.570775	0.632277
444	C	0.437544	0.579277	0.673926
445	N	0.446585	0.569335	0.379312
446	H	0.44065	0.577619	0.60217
447	H	0.471749	0.546375	0.602231
448	N	0.463418	0.55241	0.379336
449	C	0.473346	0.933993	0.67413
450	C	0.464385	0.91626	0.632423
451	C	0.446305	0.880073	0.632352
452	C	0.437496	0.862238	0.673984
453	N	0.447065	0.881194	0.379393
454	H	0.439723	0.867045	0.602224
455	H	0.470862	0.929363	0.602353
456	N	0.463926	0.914939	0.379458
457	C	0.435619	0.751023	0.341597
458	C	0.440447	0.737914	0.382745
459	C	0.440348	0.706482	0.38268
460	C	0.435559	0.688568	0.341502
461	N	0.431009	0.702995	0.636875
462	H	0.439357	0.694934	0.412995
463	H	0.439368	0.748396	0.413076
464	N	0.431025	0.732121	0.636892
465	C	0.491497	0.525101	0.676142
466	C	0.473569	0.988752	0.67618
467	C	0.491511	0.970331	0.676302
468	H	0.447216	0.975582	0.675414
469	C	0.419484	0.652245	0.675366
470	C	0.383194	0.633595	0.675211
471	C	0.382906	0.579357	0.67597
472	C	0.419375	0.597459	0.675915
473	C	0.437471	0.633913	0.6758
474	H	0.463808	0.647191	0.675356
475	C	0.383201	0.753611	0.675231
476	C	0.419492	0.771248	0.675431
477	C	0.437452	0.807553	0.675915
478	C	0.419334	0.825902	0.675939
479	C	0.382864	0.807535	0.675861
480	H	0.463791	0.820608	0.675546
481	C	0.473325	0.543281	0.007326
482	C	0.46491	0.552626	0.965643
483	C	0.446858	0.570775	0.965613
484	C	0.437544	0.579277	0.007259
485	N	0.446585	0.569335	0.712644
486	H	0.44065	0.577619	0.935505
487	H	0.471749	0.546375	0.935563
488	N	0.463418	0.55241	0.712671
489	C	0.473346	0.933993	0.007462
490	C	0.464385	0.91626	0.965755
491	C	0.446305	0.880073	0.965684
492	C	0.437496	0.862238	0.007316
493	N	0.447065	0.881194	0.712726
494	H	0.439723	0.867045	0.935559
495	H	0.470862	0.929363	0.935685
496	N	0.463926	0.914939	0.71279
497	C	0.435619	0.751023	0.674933
498	C	0.440447	0.737914	0.71608
499	C	0.440348	0.706482	0.716013
500	C	0.435559	0.688568	0.674834
501	N	0.431009	0.702995	0.970208
502	H	0.439357	0.694934	0.746327
503	H	0.439368	0.748396	0.746408
504	N	0.431025	0.732121	0.970228
505	C	0.546298	0.0251	0.009509
506	C	0.527859	0.043022	0.009308
507	C	0.991498	0.025099	0.009476
508	C	0.97357	0.488752	0.009515
509	C	0.991512	0.470331	0.009635
510	C	0.527876	0.488752	0.009582
511	H	0.947215	0.475582	0.008748
512	H	0.54106	0.475585	0.008812
513	H	0.541032	0.069363	0.008457
514	C	0.745476	0.097312	0.008824
515	C	0.763104	0.133584	0.00857
516	C	0.745458	0.152223	0.008711
517	C	0.709137	0.133883	0.009149
518	C	0.690783	0.097429	0.009265
519	C	0.709157	0.079338	0.009317
520	H	0.696073	0.147156	0.008699
521	H	0.69611	0.053011	0.008942
522	H	0.789526	0.146791	0.008445
523	C	0.919484	0.152244	0.008701
524	C	0.883196	0.133595	0.008545
525	C	0.864556	0.097322	0.0088
526	C	0.882907	0.079357	0.009303
527	C	0.919375	0.097458	0.009249
528	C	0.937471	0.133912	0.009135
529	H	0.86963	0.05303	0.008931
530	H	0.963809	0.147191	0.008691
531	H	0.869974	0.146794	0.008429
532	C	0.864535	0.271233	0.008745
533	C	0.883202	0.253611	0.008563
534	C	0.919492	0.271248	0.008765
535	C	0.937452	0.307551	0.00925
536	C	0.919334	0.3259	0.009271
537	C	0.882865	0.307535	0.009195
538	H	0.963791	0.320605	0.00888
539	H	0.869571	0.320577	0.00879
540	H	0.870003	0.227202	0.008453
541	C	0.582653	0.043277	0.340689
542	C	0.600411	0.052594	0.299002
543	C	0.636614	0.070731	0.298965
544	C	0.654432	0.079246	0.340611
545	N	0.635451	0.069332	0.046
546	H	0.649666	0.077558	0.268856
547	H	0.587317	0.046331	0.268925
548	N	0.601693	0.052419	0.046031
549	C	0.973326	0.04328	0.340658
550	C	0.964911	0.052627	0.298976
551	C	0.946859	0.070776	0.298945
552	C	0.937545	0.079278	0.340594
553	N	0.946583	0.069334	0.045977
554	H	0.940652	0.077621	0.268837
555	H	0.971751	0.046375	0.268898
556	N	0.963419	0.05241	0.046004
557	C	0.973346	0.43399	0.340797
558	C	0.964386	0.41626	0.299089
559	C	0.946306	0.380074	0.299017
560	C	0.937497	0.362238	0.340652
561	N	0.947065	0.381194	0.046059
562	H	0.939725	0.367042	0.268892
563	H	0.970864	0.429361	0.269019
564	N	0.963926	0.414939	0.046123
565	C	0.82822	0.081231	0.008282
566	C	0.810296	0.076455	0.049453
567	C	0.778935	0.076525	0.049456
568	C	0.765729	0.081231	0.008296
569	N	0.784645	0.085708	0.303629
570	H	0.768421	0.07756	0.079788
571	H	0.821892	0.077575	0.079773
572	N	0.813776	0.085715	0.303622
573	C	0.935618	0.251021	0.008265
574	C	0.940447	0.237914	0.049413
575	C	0.940348	0.206481	0.049347
576	C	0.935559	0.188567	0.008167
577	N	0.93101	0.202995	0.303542
578	H	0.939358	0.194935	0.079661
579	H	0.93937	0.248395	0.079743
580	N	0.931027	0.232121	0.30356
581	C	0.7657	0.188546	0.008163
582	C	0.778828	0.206475	0.04933
583	C	0.810262	0.23781	0.049339
584	C	0.828197	0.250988	0.00819
585	N	0.813778	0.232068	0.303529
586	H	0.821796	0.248328	0.079675
587	H	0.768336	0.194899	0.07965
588	N	0.784652	0.20296	0.303518
589	C	0.546298	0.0251	0.342844
590	C	0.527859	0.043022	0.342641
591	C	0.991498	0.025099	0.34281
592	C	0.97357	0.488752	0.342847
593	C	0.991512	0.470331	0.342969
594	C	0.527876	0.488752	0.342915
595	H	0.947215	0.475582	0.342082
596	H	0.54106	0.475585	0.342146
597	H	0.541032	0.069363	0.34179
598	C	0.745476	0.097312	0.342156
599	C	0.763104	0.133584	0.341902
600	C	0.745458	0.152223	0.342044
601	C	0.709137	0.133883	0.342481
602	C	0.690783	0.097429	0.3426
603	C	0.709157	0.079338	0.342651
604	H	0.696073	0.147156	0.342031
605	H	0.69611	0.053011	0.342275
606	H	0.789526	0.146791	0.34178
607	C	0.919484	0.152244	0.342034
608	C	0.883196	0.133595	0.341878
609	C	0.864556	0.097322	0.342132
610	C	0.882907	0.079357	0.342637
611	C	0.919375	0.097458	0.342583
612	C	0.937471	0.133912	0.342468
613	H	0.86963	0.05303	0.342265
614	H	0.963809	0.147191	0.342024
615	H	0.869974	0.146794	0.341763
616	C	0.864535	0.271233	0.342078
617	C	0.883202	0.253611	0.341895
618	C	0.919492	0.271248	0.342099
619	C	0.937452	0.307551	0.342583
620	C	0.919334	0.3259	0.342603
621	C	0.882865	0.307535	0.342529
622	H	0.963791	0.320605	0.342214
623	H	0.869571	0.320577	0.342122
624	H	0.870003	0.227202	0.341787
625	C	0.582653	0.043277	0.674021
626	C	0.600411	0.052594	0.632335
627	C	0.636614	0.070731	0.632297
628	C	0.654432	0.079246	0.673943
629	N	0.635451	0.069332	0.379332
630	H	0.649666	0.077558	0.60219
631	H	0.587317	0.046331	0.602258
632	N	0.601693	0.052419	0.379363
633	C	0.973326	0.04328	0.673994
634	C	0.964911	0.052627	0.632311
635	C	0.946859	0.070776	0.632277
636	C	0.937545	0.079278	0.673926
637	N	0.946583	0.069334	0.379312
638	H	0.940652	0.077621	0.60217
639	H	0.971751	0.046375	0.602231
640	N	0.963419	0.05241	0.379336
641	C	0.973346	0.43399	0.67413
642	C	0.964386	0.41626	0.632423
643	C	0.946306	0.380074	0.632352
644	C	0.937497	0.362238	0.673984
645	N	0.947065	0.381194	0.379393
646	H	0.939725	0.367042	0.602224
647	H	0.970864	0.429361	0.602353
648	N	0.963926	0.414939	0.379458
649	C	0.82822	0.081231	0.341614
650	C	0.810296	0.076455	0.382785
651	C	0.778935	0.076525	0.382789
652	C	0.765729	0.081231	0.341628
653	N	0.784645	0.085708	0.636964
654	H	0.768421	0.07756	0.413123
655	H	0.821892	0.077575	0.413106
656	N	0.813776	0.085715	0.636957
657	C	0.935618	0.251021	0.341597
658	C	0.940447	0.237914	0.382745
659	C	0.940348	0.206481	0.38268
660	C	0.935559	0.188567	0.341502
661	N	0.93101	0.202995	0.636875
662	H	0.939358	0.194935	0.412995
663	H	0.93937	0.248395	0.413076
664	N	0.931027	0.232121	0.636892
665	C	0.7657	0.188546	0.341495
666	C	0.778828	0.206475	0.382663
667	C	0.810262	0.23781	0.382674
668	C	0.828197	0.250988	0.341523
669	N	0.813778	0.232068	0.636862
670	H	0.821796	0.248328	0.413008
671	H	0.768336	0.194899	0.412984
672	N	0.784652	0.20296	0.636852
673	C	0.546298	0.0251	0.676176
674	C	0.527859	0.043022	0.675976
675	C	0.991498	0.025099	0.676142
676	C	0.97357	0.488752	0.67618
677	C	0.991512	0.470331	0.676302
678	C	0.527876	0.488752	0.676248
679	H	0.947215	0.475582	0.675414
680	H	0.54106	0.475585	0.675478
681	H	0.541032	0.069363	0.675122
682	C	0.745476	0.097312	0.675492
683	C	0.763104	0.133584	0.675238
684	C	0.745458	0.152223	0.675377
685	C	0.709137	0.133883	0.675814
686	C	0.690783	0.097429	0.675932
687	C	0.709157	0.079338	0.675983
688	H	0.696073	0.147156	0.675366
689	H	0.69611	0.053011	0.67561
690	H	0.789526	0.146791	0.675112
691	C	0.919484	0.152244	0.675366
692	C	0.883196	0.133595	0.675211
693	C	0.864556	0.097322	0.675468
694	C	0.882907	0.079357	0.67597
695	C	0.919375	0.097458	0.675915
696	C	0.937471	0.133912	0.6758
697	H	0.86963	0.05303	0.675597
698	H	0.963809	0.147191	0.675356
699	H	0.869974	0.146794	0.675095
700	C	0.864535	0.271233	0.675411
701	C	0.883202	0.253611	0.675231
702	C	0.919492	0.271248	0.675431
703	C	0.937452	0.307551	0.675915
704	C	0.919334	0.3259	0.675939
705	C	0.882865	0.307535	0.675861
706	H	0.963791	0.320605	0.675546
707	H	0.869571	0.320577	0.675455
708	H	0.870003	0.227202	0.675119
709	C	0.582653	0.043277	0.007357
710	C	0.600411	0.052594	0.965667
711	C	0.636614	0.070731	0.96563
712	C	0.654432	0.079246	0.007279
713	N	0.635451	0.069332	0.712665
714	H	0.649666	0.077558	0.935522
715	H	0.587317	0.046331	0.93559
716	N	0.601693	0.052419	0.712699
717	C	0.973326	0.04328	0.007326
718	C	0.964911	0.052627	0.965643
719	C	0.946859	0.070776	0.965613
720	C	0.937545	0.079278	0.007259
721	N	0.946583	0.069334	0.712644
722	H	0.940652	0.077621	0.935505
723	H	0.971751	0.046375	0.935563
724	N	0.963419	0.05241	0.712671
725	C	0.973346	0.43399	0.007462
726	C	0.964386	0.41626	0.965755
727	C	0.946306	0.380074	0.965684
728	C	0.937497	0.362238	0.007316
729	N	0.947065	0.381194	0.712726
730	H	0.939725	0.367042	0.935559
731	H	0.970864	0.429361	0.935685
732	N	0.963926	0.414939	0.71279
733	C	0.82822	0.081231	0.674946
734	C	0.810296	0.076455	0.716121
735	C	0.778935	0.076525	0.716124
736	C	0.765729	0.081231	0.674963
737	N	0.784645	0.085708	0.970296
738	H	0.768421	0.07756	0.746456
739	H	0.821892	0.077575	0.746439
740	N	0.813776	0.085715	0.970289
741	C	0.935618	0.251021	0.674933
742	C	0.940447	0.237914	0.71608
743	C	0.940348	0.206481	0.716013
744	C	0.935559	0.188567	0.674834
745	N	0.93101	0.202995	0.970208
746	H	0.939358	0.194935	0.746327
747	H	0.93937	0.248395	0.746408
748	N	0.931027	0.232121	0.970228
749	C	0.7657	0.188546	0.674831
750	C	0.778828	0.206475	0.715996
751	C	0.810262	0.23781	0.716006
752	C	0.828197	0.250988	0.674855
753	N	0.813778	0.232068	0.970194
754	H	0.821796	0.248328	0.74634
755	H	0.768336	0.194899	0.746317
756	N	0.784652	0.20296	0.970184
757	C	0.5463	0.525101	0.009509
758	C	0.527861	0.543024	0.009308
759	C	0.9915	0.525101	0.009476
760	C	0.973571	0.988752	0.009515
761	C	0.991511	0.970331	0.009635
762	C	0.527877	0.988755	0.009582
763	H	0.947216	0.975582	0.008748
764	H	0.54106	0.975585	0.008812
765	H	0.541033	0.569364	0.008457
766	C	0.745477	0.597313	0.008824
767	C	0.763106	0.633584	0.00857
768	C	0.745457	0.652224	0.008711
769	C	0.709136	0.633883	0.009149
770	C	0.690785	0.597431	0.009265
771	C	0.709159	0.579339	0.009317
772	H	0.696074	0.647155	0.008699
773	H	0.696112	0.553012	0.008942
774	H	0.789527	0.646791	0.008445
775	C	0.919486	0.652245	0.008701
776	C	0.883195	0.633595	0.008545
777	C	0.864558	0.597323	0.0088
778	C	0.882908	0.579357	0.009303
779	C	0.919377	0.597459	0.009249
780	C	0.937471	0.633913	0.009135
781	H	0.86963	0.553032	0.008931
782	H	0.963808	0.647191	0.008691
783	H	0.869976	0.646796	0.008429
784	C	0.864536	0.771233	0.008745
785	C	0.883201	0.753611	0.008563
786	C	0.919493	0.771248	0.008765
787	C	0.937452	0.807553	0.00925
788	C	0.919336	0.825902	0.009271
789	C	0.882866	0.807535	0.009194
790	H	0.963791	0.820608	0.00888
791	H	0.869571	0.820579	0.008789
792	H	0.870001	0.727201	0.008453
793	C	0.582653	0.543278	0.340689
794	C	0.600412	0.552595	0.299002
795	C	0.636615	0.570731	0.298965
796	C	0.654433	0.579246	0.340611
797	N	0.635453	0.569333	0.046
798	H	0.649664	0.577558	0.268856
799	H	0.587318	0.546331	0.268925
800	N	0.601692	0.55242	0.046031
801	C	0.973325	0.543281	0.340658
802	C	0.964912	0.552626	0.298977
803	C	0.946858	0.570775	0.298945
804	C	0.937546	0.579277	0.340594
805	N	0.946585	0.569335	0.045977
806	H	0.94065	0.577619	0.268837
807	H	0.97175	0.546375	0.268898
808	N	0.96342	0.55241	0.046004
809	C	0.973346	0.933993	0.340797
810	C	0.964385	0.91626	0.299089
811	C	0.946305	0.880073	0.299017
812	C	0.937498	0.862238	0.340652
813	N	0.947066	0.881194	0.046059
814	H	0.939723	0.867045	0.268892
815	H	0.970864	0.929363	0.269019
816	N	0.963927	0.914939	0.046123
817	C	0.828218	0.581231	0.008282
818	C	0.810295	0.576455	0.049453
819	C	0.778937	0.576527	0.049456
820	C	0.76573	0.581231	0.008296
821	N	0.784644	0.585708	0.303629
822	H	0.768422	0.57756	0.079788
823	H	0.821894	0.577576	0.079773
824	N	0.813777	0.585716	0.303622
825	C	0.93562	0.751023	0.008265
826	C	0.940448	0.737914	0.049413
827	C	0.940348	0.706482	0.049347
828	C	0.93556	0.688568	0.008167
829	N	0.931009	0.702995	0.303542
830	H	0.939359	0.694934	0.079661
831	H	0.939369	0.748396	0.079743
832	N	0.931026	0.732121	0.30356
833	C	0.765699	0.688547	0.008163
834	C	0.778829	0.706475	0.04933
835	C	0.810263	0.737809	0.049339
836	C	0.828199	0.750989	0.00819
837	N	0.81378	0.73207	0.303529
838	H	0.821795	0.748329	0.079675
839	H	0.768338	0.694901	0.07965
840	N	0.784651	0.702961	0.303518
841	C	0.5463	0.525101	0.342841
842	C	0.527861	0.543024	0.342641
843	C	0.9915	0.525101	0.34281
844	C	0.973571	0.988752	0.342847
845	C	0.991511	0.970331	0.342969
846	C	0.527877	0.988755	0.342915
847	H	0.947216	0.975582	0.342082
848	H	0.54106	0.975585	0.342146
849	H	0.541033	0.569364	0.34179
850	C	0.745477	0.597313	0.342156
851	C	0.763106	0.633584	0.341902
852	C	0.745457	0.652224	0.342044
853	C	0.709136	0.633883	0.342481
854	C	0.690785	0.597431	0.3426
855	C	0.709159	0.579339	0.342651
856	H	0.696074	0.647155	0.342031
857	H	0.696112	0.553012	0.342275
858	H	0.789527	0.646791	0.34178
859	C	0.919486	0.652245	0.342034
860	C	0.883195	0.633595	0.341878
861	C	0.864558	0.597323	0.342132
862	C	0.882908	0.579357	0.342637
863	C	0.919377	0.597459	0.342583
864	C	0.937471	0.633913	0.342468
865	H	0.86963	0.553032	0.342265
866	H	0.963808	0.647191	0.342024
867	H	0.869976	0.646796	0.341763
868	C	0.864536	0.771233	0.342078
869	C	0.883201	0.753611	0.341895
870	C	0.919493	0.771248	0.342099
871	C	0.937452	0.807553	0.342583
872	C	0.919336	0.825902	0.342603
873	C	0.882866	0.807535	0.342529
874	H	0.963791	0.820608	0.342214
875	H	0.869571	0.820579	0.342122
876	H	0.870001	0.727201	0.341787
877	C	0.582653	0.543278	0.674021
878	C	0.600412	0.552595	0.632335
879	C	0.636615	0.570731	0.632297
880	C	0.654433	0.579246	0.673943
881	N	0.635453	0.569333	0.379332
882	H	0.649664	0.577558	0.60219
883	H	0.587318	0.546331	0.602258
884	N	0.601692	0.55242	0.379363
885	C	0.973325	0.543281	0.673994
886	C	0.964912	0.552626	0.632311
887	C	0.946858	0.570775	0.632277
888	C	0.937546	0.579277	0.673926
889	N	0.946585	0.569335	0.379312
890	H	0.94065	0.577619	0.60217
891	H	0.97175	0.546375	0.602231
892	N	0.96342	0.55241	0.379336
893	C	0.973346	0.933993	0.67413
894	C	0.964385	0.91626	0.632423
895	C	0.946305	0.880073	0.632352
896	C	0.937498	0.862238	0.673984
897	N	0.947066	0.881194	0.379393
898	H	0.939723	0.867045	0.602224
899	H	0.970864	0.929363	0.602353
900	N	0.963927	0.914939	0.379458
901	C	0.828218	0.581231	0.341614
902	C	0.810295	0.576455	0.382785
903	C	0.778937	0.576527	0.382789
904	C	0.76573	0.581231	0.341628
905	N	0.784644	0.585708	0.636964
906	H	0.768422	0.57756	0.413123
907	H	0.821894	0.577576	0.413106
908	N	0.813777	0.585716	0.636957
909	C	0.93562	0.751023	0.341597
910	C	0.940448	0.737914	0.382745
911	C	0.940348	0.706482	0.38268
912	C	0.93556	0.688568	0.341502
913	N	0.931009	0.702995	0.636875
914	H	0.939359	0.694934	0.412995
915	H	0.939369	0.748396	0.413076
916	N	0.931026	0.732121	0.636892
917	C	0.765699	0.688547	0.341495
918	C	0.778829	0.706475	0.382663
919	C	0.810263	0.737809	0.382674
920	C	0.828199	0.750989	0.341523
921	N	0.81378	0.73207	0.636862
922	H	0.821795	0.748329	0.413008
923	H	0.768338	0.694901	0.412984
924	N	0.784651	0.702961	0.636852
925	C	0.5463	0.525101	0.676176
926	C	0.527861	0.543024	0.675976
927	C	0.9915	0.525101	0.676142
928	C	0.973571	0.988752	0.67618
929	C	0.991511	0.970331	0.676302
930	C	0.527877	0.988755	0.676248
931	H	0.947216	0.975582	0.675414
932	H	0.54106	0.975585	0.675478
933	H	0.541033	0.569364	0.675122
934	C	0.745477	0.597313	0.675492
935	C	0.763106	0.633584	0.675238
936	C	0.745457	0.652224	0.675377
937	C	0.709136	0.633883	0.675814
938	C	0.690785	0.597431	0.675932
939	C	0.709159	0.579339	0.675983
940	H	0.696074	0.647155	0.675366
941	H	0.696112	0.553012	0.67561
942	H	0.789527	0.646791	0.675112
943	C	0.919486	0.652245	0.675366
944	C	0.883195	0.633595	0.675211
945	C	0.864558	0.597323	0.675468
946	C	0.882908	0.579357	0.67597
947	C	0.919377	0.597459	0.675915
948	C	0.937471	0.633913	0.6758
949	H	0.86963	0.553032	0.675597
950	H	0.963808	0.647191	0.675356
951	H	0.869976	0.646796	0.675095
952	C	0.864536	0.771233	0.675411
953	C	0.883201	0.753611	0.675231
954	C	0.919493	0.771248	0.675431
955	C	0.937452	0.807553	0.675915
956	C	0.919336	0.825902	0.675939
957	C	0.882866	0.807535	0.675861
958	H	0.963791	0.820608	0.675546
959	H	0.869571	0.820579	0.675455
960	H	0.870001	0.727201	0.675119
961	C	0.582653	0.543278	0.007357
962	C	0.600412	0.552595	0.965667
963	C	0.636615	0.570731	0.96563
964	C	0.654433	0.579246	0.007279
965	N	0.635453	0.569333	0.712665
966	H	0.649664	0.577558	0.935522
967	H	0.587318	0.546331	0.93559
968	N	0.601692	0.55242	0.712699
969	C	0.973325	0.543281	0.007326
970	C	0.964912	0.552626	0.965643
971	C	0.946858	0.570775	0.965613
972	C	0.937546	0.579277	0.007259
973	N	0.946585	0.569335	0.712644
974	H	0.94065	0.577619	0.935505
975	H	0.97175	0.546375	0.935563
976	N	0.96342	0.55241	0.712671
977	C	0.973346	0.933993	0.007462
978	C	0.964385	0.91626	0.965755
979	C	0.946305	0.880073	0.965684
980	C	0.937498	0.862238	0.007316
981	N	0.947066	0.881194	0.712726
982	H	0.939723	0.867045	0.935559
983	H	0.970864	0.929363	0.935685
984	N	0.963927	0.914939	0.71279
985	C	0.828218	0.581231	0.674946
986	C	0.810295	0.576455	0.716121
987	C	0.778937	0.576527	0.716124
988	C	0.76573	0.581231	0.674963
989	N	0.784644	0.585708	0.970296
990	H	0.768422	0.57756	0.746456
991	H	0.821894	0.577576	0.746439
992	N	0.813777	0.585716	0.970289
993	C	0.93562	0.751023	0.674933
994	C	0.940448	0.737914	0.71608
995	C	0.940348	0.706482	0.716013
996	C	0.93556	0.688568	0.674834
997	N	0.931009	0.702995	0.970208
998	H	0.939359	0.694934	0.746327
999	H	0.939369	0.748396	0.746408
1000	N	0.931026	0.732121	0.970228
1001	C	0.765699	0.688547	0.674831
1002	C	0.778829	0.706475	0.715996
1003	C	0.810263	0.737809	0.716006
1004	C	0.828199	0.750989	0.674855
1005	N	0.81378	0.73207	0.970194
1006	H	0.821795	0.748329	0.74634
1007	H	0.768338	0.694901	0.746317
1008	N	0.784651	0.702961	0.970184
