data_C576H432N72_2018-02-15_10:36:40
#******************************************
#
# CIF file created by Zeo++
# Zeo++ is an open source package to
# analyze microporous materials
#
#*******************************************

_cell_length_a		44.1262   
_cell_length_b		44.1262   
_cell_length_c		29.7382   
_cell_angle_alpha		90   
_cell_angle_beta		90   
_cell_angle_gamma		120   

_symmetry_space_group_name_H-M		'P1'
_symmetry_Int_Tables_number		1
_symmetry_cell_setting		Monoclinic

loop_
_symmetry_equiv_pos_as_xyz
'+x,+y,+z'

loop_
_atom_site_label
_atom_site_type_symbol
_atom_site_fract_x
_atom_site_fract_y
_atom_site_fract_z
1	C	0.080438	0.318469	0.326139
2	C	0.043333	0.300661	0.326002
3	C	0.024504	0.264222	0.00255
4	C	0.043318	0.246719	0.011312
5	C	0.080132	0.264855	0.010758
6	C	0.024902	0.320264	0.315107
7	H	0.042927	0.347876	0.308015
8	H	0.008414	0.318887	0.343259
9	H	0.008466	0.308839	0.285478
10	H	0.030304	0.220508	0.018487
11	C	0.080438	0.318469	0.659473
12	C	0.043333	0.300661	0.659335
13	C	0.024504	0.264222	0.335884
14	C	0.043318	0.246719	0.344645
15	C	0.080132	0.264855	0.34409
16	C	0.024902	0.320264	0.64844
17	H	0.042927	0.347876	0.641348
18	H	0.008414	0.318887	0.676592
19	H	0.008466	0.308839	0.618811
20	H	0.030304	0.220508	0.351821
21	C	0.080438	0.318469	0.992805
22	C	0.043333	0.300661	0.992667
23	C	0.024504	0.264222	0.669218
24	C	0.043318	0.246719	0.677977
25	C	0.080132	0.264855	0.677423
26	C	0.024902	0.320264	0.981772
27	H	0.042927	0.347876	0.97468
28	H	0.008414	0.318887	0.009925
29	H	0.008466	0.308839	0.952144
30	H	0.030304	0.220508	0.685153
31	C	0.080439	0.818468	0.326139
32	C	0.043334	0.800661	0.326002
33	C	0.024506	0.764224	0.00255
34	C	0.043317	0.746718	0.011312
35	C	0.080131	0.764855	0.010758
36	C	0.024903	0.820263	0.315107
37	H	0.042926	0.847876	0.308015
38	H	0.008414	0.818887	0.343259
39	H	0.008466	0.808838	0.285478
40	H	0.030305	0.720508	0.018487
41	C	0.080439	0.818468	0.659473
42	C	0.043334	0.800661	0.659335
43	C	0.024506	0.764224	0.335884
44	C	0.043317	0.746718	0.344645
45	C	0.080131	0.764855	0.34409
46	C	0.024903	0.820263	0.64844
47	H	0.042926	0.847876	0.641348
48	H	0.008414	0.818887	0.676592
49	H	0.008466	0.808838	0.618811
50	H	0.030305	0.720508	0.351821
51	C	0.080439	0.818468	0.992805
52	C	0.043334	0.800661	0.992667
53	C	0.024506	0.764224	0.669218
54	C	0.043317	0.746718	0.677977
55	C	0.080131	0.764855	0.677423
56	C	0.024903	0.820263	0.981772
57	H	0.042926	0.847876	0.97468
58	H	0.008414	0.818887	0.009925
59	H	0.008466	0.808838	0.952144
60	H	0.030305	0.720508	0.685153
61	C	0.137072	0.31978	0.001794
62	C	0.099596	0.301213	0.33515
63	H	0.092573	0.251086	0.017701
64	H	0.09378	0.344655	0.318955
65	C	0.137072	0.31978	0.335127
66	C	0.099596	0.301213	0.668481
67	H	0.092573	0.251086	0.351034
68	H	0.09378	0.344655	0.652287
69	C	0.137072	0.31978	0.668458
70	C	0.099596	0.301213	0.001814
71	H	0.092573	0.251086	0.684367
72	H	0.09378	0.344655	0.985619
73	C	0.137072	0.819779	0.001794
74	C	0.099595	0.801213	0.33515
75	H	0.092572	0.751085	0.017701
76	H	0.093779	0.844655	0.318955
77	C	0.137072	0.819779	0.335127
78	C	0.099595	0.801213	0.668481
79	H	0.092572	0.751085	0.351034
80	H	0.093779	0.844655	0.652287
81	C	0.137072	0.819779	0.668458
82	C	0.099595	0.801213	0.001814
83	H	0.092572	0.751085	0.684367
84	H	0.093779	0.844655	0.985619
85	C	0.191515	0.373937	0.001794
86	N	0.155888	0.355405	0.001807
87	N	0.155603	0.302684	0.001811
88	C	0.19123	0.319494	0.001797
89	C	0.192541	0.26417	0.326156
90	H	0.166359	0.251328	0.318948
91	C	0.190754	0.206844	0.315103
92	H	0.163142	0.197256	0.308005
93	H	0.192128	0.191728	0.343249
94	C	0.193527	0.430874	0.010764
95	H	0.167318	0.418431	0.017716
96	H	0.199006	0.480698	0.018508
97	C	0.191515	0.373937	0.335129
98	N	0.155888	0.355405	0.335141
99	N	0.155603	0.302684	0.335144
100	C	0.19123	0.319494	0.335131
101	C	0.192541	0.26417	0.659489
102	H	0.166359	0.251328	0.65228
103	C	0.190754	0.206844	0.648436
104	H	0.163142	0.197256	0.641338
105	H	0.192128	0.191728	0.676582
106	C	0.193527	0.430874	0.344097
107	H	0.167318	0.418431	0.351051
108	H	0.199006	0.480698	0.351841
109	C	0.191515	0.373937	0.668461
110	N	0.155888	0.355405	0.668475
111	N	0.155603	0.302684	0.668478
112	C	0.19123	0.319494	0.668464
113	C	0.192541	0.26417	0.992822
114	H	0.166359	0.251328	0.985613
115	C	0.190754	0.206844	0.981769
116	H	0.163142	0.197256	0.97467
117	H	0.192128	0.191728	0.009915
118	C	0.193527	0.430874	0.677429
119	H	0.167318	0.418431	0.684383
120	H	0.199006	0.480698	0.685174
121	C	0.191516	0.873937	0.001794
122	N	0.155889	0.855405	0.001807
123	N	0.155603	0.802684	0.001811
124	C	0.191229	0.819494	0.001797
125	C	0.19254	0.764169	0.326156
126	H	0.166359	0.751329	0.318948
127	C	0.190753	0.706843	0.315103
128	H	0.163142	0.697255	0.308004
129	H	0.192129	0.691728	0.343249
130	C	0.193526	0.930873	0.010764
131	H	0.167318	0.918431	0.017716
132	H	0.199005	0.980698	0.018508
133	C	0.191516	0.873937	0.335129
134	N	0.155889	0.855405	0.335141
135	N	0.155603	0.802684	0.335144
136	C	0.191229	0.819494	0.335131
137	C	0.19254	0.764169	0.659489
138	H	0.166359	0.751329	0.65228
139	C	0.190753	0.706843	0.648436
140	H	0.163142	0.697255	0.641338
141	H	0.192129	0.691728	0.676582
142	C	0.193526	0.930873	0.344097
143	H	0.167318	0.918431	0.351051
144	H	0.199005	0.980698	0.351841
145	C	0.191516	0.873937	0.668461
146	N	0.155889	0.855405	0.668475
147	N	0.155603	0.802684	0.668478
148	C	0.191229	0.819494	0.668464
149	C	0.19254	0.764169	0.992822
150	H	0.166359	0.751329	0.985613
151	C	0.190753	0.706843	0.981769
152	H	0.163142	0.697255	0.97467
153	H	0.192129	0.691728	0.009915
154	C	0.193526	0.930873	0.677429
155	H	0.167318	0.918431	0.684383
156	H	0.199005	0.980698	0.685174
157	N	0.208324	0.35512	0.001811
158	C	0.321861	0.135317	0.002614
159	N	0.357457	0.153158	0.002705
160	C	0.37569	0.188744	0.002608
161	N	0.357849	0.206499	0.002705
162	C	0.322263	0.189146	0.002614
163	N	0.304509	0.153551	0.002712
164	C	0.209796	0.300585	0.33516
165	C	0.210352	0.244876	0.326012
166	C	0.246789	0.262487	0.002571
167	C	0.26429	0.298803	0.011338
168	C	0.246153	0.31748	0.010771
169	H	0.259921	0.343692	0.017719
170	C	0.26632	0.244695	0.004376
171	C	0.2832	0.24298	0.298158
172	C	0.302106	0.225068	0.297696
173	C	0.303972	0.207787	0.00324
174	C	0.287274	0.209534	0.042858
175	C	0.268836	0.2282	0.044282
176	H	0.281724	0.254677	0.269146
177	H	0.313832	0.224084	0.268455
178	H	0.289055	0.197418	0.071297
179	H	0.202187	0.201843	0.285473
180	H	0.290501	0.312003	0.018512
181	C	0.25295	0.23053	0.087381
182	H	0.224739	0.219063	0.083487
183	H	0.264184	0.257924	0.097135
184	H	0.257482	0.216886	0.114895
185	C	0.210423	0.411413	0.335155
186	C	0.246836	0.43057	0.326145
187	C	0.266132	0.467677	0.326005
188	C	0.248521	0.486502	0.00256
189	C	0.212204	0.467687	0.011323
190	C	0.266313	0.023826	0.004373
191	C	0.26804	0.042423	0.298148
192	C	0.285957	0.07924	0.297687
193	C	0.303221	0.098386	0.00324
194	C	0.301458	0.079939	0.042861
195	C	0.2828	0.042835	0.04428
196	H	0.256343	0.02925	0.269135
197	H	0.286938	0.09195	0.268447
198	H	0.313575	0.093834	0.071302
199	H	0.259679	0.41723	0.31895
200	C	0.304165	0.48611	0.315106
201	H	0.313754	0.468088	0.30801
202	H	0.319277	0.502598	0.343256
203	H	0.309171	0.502546	0.285478
204	C	0.280464	0.024616	0.08738
205	H	0.291935	0.007877	0.08349
206	H	0.253067	0.008453	0.097125
207	H	0.2941	0.042791	0.114897
208	C	0.487181	0.244696	0.004356
209	C	0.468584	0.227824	0.298135
210	C	0.431766	0.208931	0.297673
211	C	0.412621	0.207037	0.00323
212	C	0.431068	0.223731	0.042849
213	C	0.468173	0.24217	0.044269
214	H	0.481756	0.229295	0.269125
215	H	0.419055	0.19718	0.268443
216	H	0.417174	0.221931	0.071298
217	C	0.486392	0.258044	0.087371
218	H	0.503136	0.286256	0.083488
219	H	0.502552	0.246805	0.097111
220	H	0.468217	0.253506	0.114889
221	N	0.208324	0.35512	0.335145
222	C	0.321861	0.135317	0.335948
223	N	0.357457	0.153158	0.33604
224	C	0.37569	0.188744	0.335943
225	N	0.357849	0.206499	0.336039
226	C	0.322263	0.189146	0.335947
227	N	0.304509	0.153551	0.336046
228	C	0.209796	0.300585	0.668495
229	C	0.210352	0.244876	0.659345
230	C	0.246789	0.262487	0.335905
231	C	0.26429	0.298803	0.344672
232	C	0.246153	0.31748	0.344103
233	H	0.259921	0.343692	0.351051
234	C	0.26632	0.244695	0.337711
235	C	0.2832	0.24298	0.631492
236	C	0.302106	0.225068	0.631028
237	C	0.303972	0.207787	0.336574
238	C	0.287274	0.209534	0.37619
239	C	0.268836	0.2282	0.377616
240	H	0.281724	0.254677	0.602479
241	H	0.313832	0.224084	0.601789
242	H	0.289055	0.197418	0.404632
243	H	0.202187	0.201843	0.618804
244	H	0.290501	0.312003	0.351844
245	C	0.25295	0.23053	0.420715
246	H	0.224739	0.219063	0.416821
247	H	0.264184	0.257924	0.430467
248	H	0.257482	0.216886	0.448229
249	C	0.210423	0.411413	0.668488
250	C	0.246836	0.43057	0.659479
251	C	0.266132	0.467677	0.659338
252	C	0.248521	0.486502	0.335896
253	C	0.212204	0.467687	0.344655
254	C	0.266313	0.023826	0.337704
255	C	0.26804	0.042423	0.631482
256	C	0.285957	0.07924	0.631021
257	C	0.303221	0.098386	0.336571
258	C	0.301458	0.079939	0.376193
259	C	0.2828	0.042835	0.377613
260	H	0.256343	0.02925	0.602468
261	H	0.286938	0.09195	0.601779
262	H	0.313575	0.093834	0.404635
263	H	0.259679	0.41723	0.652283
264	C	0.304165	0.48611	0.64844
265	H	0.313754	0.468088	0.641344
266	H	0.319277	0.502598	0.676589
267	H	0.309171	0.502546	0.618811
268	C	0.280464	0.024616	0.420712
269	H	0.291935	0.007877	0.416821
270	H	0.253067	0.008453	0.430457
271	H	0.2941	0.042791	0.448229
272	C	0.487181	0.244696	0.337691
273	C	0.468584	0.227824	0.631468
274	C	0.431766	0.208931	0.631004
275	C	0.412621	0.207037	0.336564
276	C	0.431068	0.223731	0.37618
277	C	0.468173	0.24217	0.377602
278	H	0.481756	0.229295	0.602458
279	H	0.419055	0.19718	0.601776
280	H	0.417174	0.221931	0.404632
281	C	0.486392	0.258044	0.420705
282	H	0.503136	0.286256	0.416821
283	H	0.502552	0.246805	0.430444
284	H	0.468217	0.253506	0.448222
285	N	0.208324	0.35512	0.668478
286	C	0.321861	0.135317	0.669282
287	N	0.357457	0.153158	0.669372
288	C	0.37569	0.188744	0.669275
289	N	0.357849	0.206499	0.669372
290	C	0.322263	0.189146	0.669282
291	N	0.304509	0.153551	0.669379
292	C	0.209796	0.300585	0.001827
293	C	0.210352	0.244876	0.992678
294	C	0.246789	0.262487	0.669238
295	C	0.26429	0.298803	0.678004
296	C	0.246153	0.31748	0.677436
297	H	0.259921	0.343692	0.684383
298	C	0.26632	0.244695	0.671044
299	C	0.2832	0.24298	0.964824
300	C	0.302106	0.225068	0.96436
301	C	0.303972	0.207787	0.669907
302	C	0.287274	0.209534	0.709523
303	C	0.268836	0.2282	0.710949
304	H	0.281724	0.254677	0.935811
305	H	0.313832	0.224084	0.935122
306	H	0.289055	0.197418	0.737964
307	H	0.202187	0.201843	0.95214
308	H	0.290501	0.312003	0.685177
309	C	0.25295	0.23053	0.754048
310	H	0.224739	0.219063	0.750154
311	H	0.264184	0.257924	0.7638
312	H	0.257482	0.216886	0.781562
313	C	0.210423	0.411413	0.001821
314	C	0.246836	0.43057	0.992812
315	C	0.266132	0.467677	0.992671
316	C	0.248521	0.486502	0.669228
317	C	0.212204	0.467687	0.677988
318	C	0.266313	0.023826	0.671037
319	C	0.26804	0.042423	0.964814
320	C	0.285957	0.07924	0.964354
321	C	0.303221	0.098386	0.669904
322	C	0.301458	0.079939	0.709526
323	C	0.2828	0.042835	0.710945
324	H	0.256343	0.02925	0.935801
325	H	0.286938	0.09195	0.935112
326	H	0.313575	0.093834	0.737968
327	H	0.259679	0.41723	0.985616
328	C	0.304165	0.48611	0.981772
329	H	0.313754	0.468088	0.974677
330	H	0.319277	0.502598	0.009923
331	H	0.309171	0.502546	0.952144
332	C	0.280464	0.024616	0.754045
333	H	0.291935	0.007877	0.750154
334	H	0.253067	0.008453	0.76379
335	H	0.2941	0.042791	0.781562
336	C	0.487181	0.244696	0.671023
337	C	0.468584	0.227824	0.964801
338	C	0.431766	0.208931	0.964337
339	C	0.412621	0.207037	0.669897
340	C	0.431068	0.223731	0.709513
341	C	0.468173	0.24217	0.710935
342	H	0.481756	0.229295	0.935791
343	H	0.419055	0.19718	0.935108
344	H	0.417174	0.221931	0.737964
345	C	0.486392	0.258044	0.754038
346	H	0.503136	0.286256	0.750154
347	H	0.502552	0.246805	0.763776
348	H	0.468217	0.253506	0.781555
349	N	0.208324	0.855119	0.001811
350	C	0.321862	0.635318	0.002614
351	N	0.357456	0.653156	0.002705
352	C	0.37569	0.688745	0.002608
353	N	0.357849	0.706497	0.002705
354	C	0.322262	0.689145	0.002614
355	N	0.304508	0.653552	0.002712
356	C	0.209796	0.800585	0.33516
357	C	0.210352	0.744876	0.326012
358	C	0.246788	0.762487	0.002571
359	C	0.264289	0.798803	0.011338
360	C	0.246153	0.817479	0.010771
361	H	0.25992	0.843692	0.017719
362	C	0.26632	0.744695	0.004376
363	C	0.2832	0.742978	0.298158
364	C	0.302107	0.725069	0.297696
365	C	0.303973	0.707788	0.00324
366	C	0.287274	0.709533	0.042858
367	C	0.268835	0.728199	0.044282
368	H	0.281724	0.754678	0.269146
369	H	0.313831	0.724082	0.268455
370	H	0.289055	0.697417	0.071297
371	H	0.202186	0.701842	0.285473
372	H	0.2905	0.812002	0.018512
373	C	0.25295	0.73053	0.087381
374	H	0.224739	0.719063	0.083487
375	H	0.264183	0.757923	0.097135
376	H	0.257482	0.716886	0.114895
377	C	0.210423	0.911412	0.335155
378	C	0.246836	0.93057	0.326145
379	C	0.266131	0.967676	0.326005
380	C	0.248521	0.986502	0.00256
381	C	0.212204	0.967687	0.011323
382	C	0.266313	0.523826	0.004373
383	C	0.26804	0.542423	0.298148
384	C	0.285957	0.579239	0.297687
385	C	0.303221	0.598386	0.00324
386	C	0.301457	0.579938	0.042861
387	C	0.282799	0.542834	0.04428
388	H	0.256343	0.52925	0.269135
389	H	0.286937	0.591949	0.268447
390	H	0.313574	0.593833	0.071302
391	H	0.259679	0.917229	0.31895
392	C	0.304165	0.986109	0.315106
393	H	0.313754	0.968087	0.30801
394	H	0.319277	0.002598	0.343256
395	H	0.309171	0.002545	0.285478
396	C	0.280463	0.524616	0.08738
397	H	0.291935	0.507876	0.08349
398	H	0.253067	0.508452	0.097125
399	H	0.294101	0.542792	0.114897
400	C	0.487181	0.744695	0.004356
401	C	0.468584	0.727825	0.298135
402	C	0.431766	0.708931	0.297673
403	C	0.412621	0.707037	0.00323
404	C	0.431069	0.723732	0.042849
405	C	0.468173	0.74217	0.044269
406	H	0.481757	0.729295	0.269125
407	H	0.419054	0.697179	0.268443
408	H	0.417174	0.721931	0.071298
409	C	0.486392	0.758043	0.087371
410	H	0.503137	0.786255	0.083487
411	H	0.50255	0.746804	0.097111
412	H	0.468218	0.753506	0.114889
413	N	0.208324	0.855119	0.335145
414	C	0.321862	0.635318	0.335948
415	N	0.357456	0.653156	0.33604
416	C	0.37569	0.688745	0.335943
417	N	0.357849	0.706497	0.336039
418	C	0.322262	0.689145	0.335947
419	N	0.304508	0.653552	0.336046
420	C	0.209796	0.800585	0.668495
421	C	0.210352	0.744876	0.659345
422	C	0.246788	0.762487	0.335905
423	C	0.264289	0.798803	0.344672
424	C	0.246153	0.817479	0.344103
425	H	0.25992	0.843692	0.351051
426	C	0.26632	0.744695	0.337711
427	C	0.2832	0.742978	0.631492
428	C	0.302107	0.725069	0.631028
429	C	0.303973	0.707788	0.336574
430	C	0.287274	0.709533	0.37619
431	C	0.268835	0.728199	0.377616
432	H	0.281724	0.754678	0.602479
433	H	0.313831	0.724082	0.601789
434	H	0.289055	0.697417	0.404632
435	H	0.202186	0.701842	0.618804
436	H	0.2905	0.812002	0.351844
437	C	0.25295	0.73053	0.420715
438	H	0.224739	0.719063	0.416821
439	H	0.264183	0.757923	0.430467
440	H	0.257482	0.716886	0.448229
441	C	0.210423	0.911412	0.668488
442	C	0.246836	0.93057	0.659479
443	C	0.266131	0.967676	0.659338
444	C	0.248521	0.986502	0.335896
445	C	0.212204	0.967687	0.344655
446	C	0.266313	0.523826	0.337704
447	C	0.26804	0.542423	0.631482
448	C	0.285957	0.579239	0.631021
449	C	0.303221	0.598386	0.336571
450	C	0.301457	0.579938	0.376193
451	C	0.282799	0.542834	0.377613
452	H	0.256343	0.52925	0.602468
453	H	0.286937	0.591949	0.601779
454	H	0.313574	0.593833	0.404635
455	H	0.259679	0.917229	0.652283
456	C	0.304165	0.986109	0.64844
457	H	0.313754	0.968087	0.641344
458	H	0.319277	0.002598	0.676589
459	H	0.309171	0.002545	0.618811
460	C	0.280463	0.524616	0.420712
461	H	0.291935	0.507876	0.416821
462	H	0.253067	0.508452	0.430457
463	H	0.294101	0.542792	0.448229
464	C	0.487181	0.744695	0.337691
465	C	0.468584	0.727825	0.631468
466	C	0.431766	0.708931	0.631004
467	C	0.412621	0.707037	0.336564
468	C	0.431069	0.723732	0.37618
469	C	0.468173	0.74217	0.377602
470	H	0.481757	0.729295	0.602458
471	H	0.419054	0.697179	0.601776
472	H	0.417174	0.721931	0.404632
473	C	0.486392	0.758043	0.420705
474	H	0.503137	0.786255	0.416821
475	H	0.50255	0.746804	0.430444
476	H	0.468218	0.753506	0.448222
477	N	0.208324	0.855119	0.668478
478	C	0.321862	0.635318	0.669282
479	N	0.357456	0.653156	0.669372
480	C	0.37569	0.688745	0.669275
481	N	0.357849	0.706497	0.669372
482	C	0.322262	0.689145	0.669282
483	N	0.304508	0.653552	0.669379
484	C	0.209796	0.800585	0.001827
485	C	0.210352	0.744876	0.992678
486	C	0.246788	0.762487	0.669238
487	C	0.264289	0.798803	0.678004
488	C	0.246153	0.817479	0.677436
489	H	0.25992	0.843692	0.684383
490	C	0.26632	0.744695	0.671044
491	C	0.2832	0.742978	0.964824
492	C	0.302107	0.725069	0.96436
493	C	0.303973	0.707788	0.669907
494	C	0.287274	0.709533	0.709523
495	C	0.268835	0.728199	0.710949
496	H	0.281724	0.754678	0.935811
497	H	0.313831	0.724082	0.935122
498	H	0.289055	0.697417	0.737964
499	H	0.202186	0.701842	0.95214
500	H	0.2905	0.812002	0.685177
501	C	0.25295	0.73053	0.754048
502	H	0.224739	0.719063	0.750154
503	H	0.264183	0.757923	0.7638
504	H	0.257482	0.716886	0.781562
505	C	0.210423	0.911412	0.001821
506	C	0.246836	0.93057	0.992812
507	C	0.266131	0.967676	0.992671
508	C	0.248521	0.986502	0.669228
509	C	0.212204	0.967687	0.677988
510	C	0.266313	0.523826	0.671037
511	C	0.26804	0.542423	0.964814
512	C	0.285957	0.579239	0.964354
513	C	0.303221	0.598386	0.669904
514	C	0.301457	0.579938	0.709526
515	C	0.282799	0.542834	0.710945
516	H	0.256343	0.52925	0.935801
517	H	0.286937	0.591949	0.935112
518	H	0.313574	0.593833	0.737968
519	H	0.259679	0.917229	0.985616
520	C	0.304165	0.986109	0.981772
521	H	0.313754	0.968087	0.974677
522	H	0.319277	0.002598	0.009923
523	H	0.309171	0.002545	0.952144
524	C	0.280463	0.524616	0.754045
525	H	0.291935	0.507876	0.750154
526	H	0.253067	0.508452	0.76379
527	H	0.294101	0.542792	0.781562
528	C	0.487181	0.744695	0.671023
529	C	0.468584	0.727825	0.964801
530	C	0.431766	0.708931	0.964337
531	C	0.412621	0.707037	0.669897
532	C	0.431069	0.723732	0.709513
533	C	0.468173	0.74217	0.710935
534	H	0.481757	0.729295	0.935791
535	H	0.419054	0.697179	0.935108
536	H	0.417174	0.721931	0.737964
537	C	0.486392	0.758043	0.754038
538	H	0.503137	0.786255	0.750154
539	H	0.50255	0.746804	0.763776
540	H	0.468218	0.753506	0.781555
541	C	0.691515	0.373937	0.001794
542	N	0.655888	0.355405	0.001807
543	C	0.637071	0.31978	0.001794
544	N	0.655603	0.302684	0.001811
545	C	0.69123	0.319494	0.001797
546	N	0.708324	0.35512	0.001811
547	C	0.821861	0.135317	0.002614
548	N	0.857457	0.153158	0.002705
549	C	0.87569	0.188744	0.002608
550	N	0.857849	0.206499	0.002705
551	C	0.822263	0.189146	0.002614
552	N	0.804509	0.153551	0.002712
553	C	0.709797	0.300585	0.33516
554	C	0.692541	0.26417	0.326156
555	C	0.710352	0.244876	0.326012
556	C	0.746789	0.262487	0.002571
557	C	0.76429	0.298803	0.011338
558	C	0.746153	0.31748	0.010771
559	H	0.759921	0.343692	0.017719
560	C	0.766321	0.244695	0.004376
561	C	0.783201	0.24298	0.298158
562	C	0.802106	0.225068	0.297696
563	C	0.803972	0.207787	0.00324
564	C	0.787273	0.209534	0.042858
565	C	0.768836	0.2282	0.044282
566	H	0.781723	0.254677	0.269146
567	H	0.813831	0.224084	0.268455
568	H	0.789054	0.197418	0.071297
569	H	0.666359	0.251328	0.318948
570	C	0.690754	0.206844	0.315103
571	H	0.663143	0.197256	0.308005
572	H	0.692129	0.191728	0.343249
573	H	0.702188	0.201843	0.285473
574	H	0.7905	0.312003	0.018512
575	C	0.75295	0.23053	0.087381
576	H	0.72474	0.219063	0.083487
577	H	0.764183	0.257924	0.097135
578	H	0.757482	0.216886	0.114895
579	C	0.710422	0.411413	0.335155
580	C	0.746836	0.43057	0.326145
581	C	0.766132	0.467677	0.326005
582	C	0.74852	0.486502	0.00256
583	C	0.712203	0.467687	0.011323
584	C	0.693527	0.430874	0.010764
585	H	0.667317	0.418431	0.017716
586	C	0.766313	0.023826	0.004373
587	C	0.76804	0.042423	0.298148
588	C	0.785957	0.07924	0.297687
589	C	0.803221	0.098386	0.00324
590	C	0.801458	0.079939	0.042861
591	C	0.7828	0.042835	0.04428
592	H	0.756343	0.02925	0.269135
593	H	0.786938	0.09195	0.268447
594	H	0.813575	0.093834	0.071302
595	H	0.75968	0.41723	0.31895
596	C	0.804166	0.48611	0.315106
597	H	0.813754	0.468088	0.30801
598	H	0.819277	0.502598	0.343256
599	H	0.80917	0.502546	0.285478
600	H	0.699006	0.480698	0.018508
601	C	0.780464	0.024616	0.08738
602	H	0.791935	0.007877	0.08349
603	H	0.753067	0.008453	0.097125
604	H	0.7941	0.042791	0.114897
605	C	0.599596	0.301213	0.33515
606	C	0.580438	0.318469	0.326139
607	C	0.543333	0.300661	0.326002
608	C	0.524504	0.264222	0.00255
609	C	0.543316	0.246719	0.011312
610	C	0.580132	0.264855	0.010758
611	H	0.592574	0.251086	0.017701
612	C	0.987181	0.244696	0.004356
613	C	0.968584	0.227824	0.298135
614	C	0.931766	0.208931	0.297673
615	C	0.912621	0.207037	0.00323
616	C	0.931068	0.223731	0.042849
617	C	0.968173	0.24217	0.044269
618	H	0.981756	0.229295	0.269125
619	H	0.919055	0.19718	0.268443
620	H	0.917174	0.221931	0.071298
621	H	0.59378	0.344655	0.318955
622	C	0.524902	0.320264	0.315107
623	H	0.542928	0.347876	0.308015
624	H	0.508416	0.318887	0.343259
625	H	0.508465	0.308839	0.285478
626	H	0.530304	0.220508	0.018487
627	C	0.986392	0.258044	0.087371
628	H	0.003136	0.286256	0.083488
629	H	0.002552	0.246805	0.097111
630	H	0.968217	0.253506	0.114889
631	C	0.691515	0.373937	0.335129
632	N	0.655888	0.355405	0.335141
633	C	0.637071	0.31978	0.335127
634	N	0.655603	0.302684	0.335144
635	C	0.69123	0.319494	0.335131
636	N	0.708324	0.35512	0.335145
637	C	0.821861	0.135317	0.335948
638	N	0.857457	0.153158	0.33604
639	C	0.87569	0.188744	0.335943
640	N	0.857849	0.206499	0.336039
641	C	0.822263	0.189146	0.335947
642	N	0.804509	0.153551	0.336046
643	C	0.709797	0.300585	0.668495
644	C	0.692541	0.26417	0.659489
645	C	0.710352	0.244876	0.659345
646	C	0.746789	0.262487	0.335905
647	C	0.76429	0.298803	0.344672
648	C	0.746153	0.31748	0.344103
649	H	0.759921	0.343692	0.351051
650	C	0.766321	0.244695	0.337711
651	C	0.783201	0.24298	0.631492
652	C	0.802106	0.225068	0.631028
653	C	0.803972	0.207787	0.336574
654	C	0.787273	0.209534	0.37619
655	C	0.768836	0.2282	0.377616
656	H	0.781723	0.254677	0.602479
657	H	0.813831	0.224084	0.601789
658	H	0.789054	0.197418	0.404632
659	H	0.666359	0.251328	0.65228
660	C	0.690754	0.206844	0.648436
661	H	0.663143	0.197256	0.641338
662	H	0.692129	0.191728	0.676582
663	H	0.702188	0.201843	0.618804
664	H	0.7905	0.312003	0.351844
665	C	0.75295	0.23053	0.420715
666	H	0.72474	0.219063	0.416821
667	H	0.764183	0.257924	0.430467
668	H	0.757482	0.216886	0.448229
669	C	0.710422	0.411413	0.668488
670	C	0.746836	0.43057	0.659479
671	C	0.766132	0.467677	0.659338
672	C	0.74852	0.486502	0.335896
673	C	0.712203	0.467687	0.344655
674	C	0.693527	0.430874	0.344097
675	H	0.667317	0.418431	0.351051
676	C	0.766313	0.023826	0.337704
677	C	0.76804	0.042423	0.631482
678	C	0.785957	0.07924	0.631021
679	C	0.803221	0.098386	0.336571
680	C	0.801458	0.079939	0.376193
681	C	0.7828	0.042835	0.377613
682	H	0.756343	0.02925	0.602468
683	H	0.786938	0.09195	0.601779
684	H	0.813575	0.093834	0.404635
685	H	0.75968	0.41723	0.652283
686	C	0.804166	0.48611	0.64844
687	H	0.813754	0.468088	0.641344
688	H	0.819277	0.502598	0.676589
689	H	0.80917	0.502546	0.618811
690	H	0.699006	0.480698	0.351841
691	C	0.780464	0.024616	0.420712
692	H	0.791935	0.007877	0.416821
693	H	0.753067	0.008453	0.430457
694	H	0.7941	0.042791	0.448229
695	C	0.599596	0.301213	0.668481
696	C	0.580438	0.318469	0.659473
697	C	0.543333	0.300661	0.659335
698	C	0.524504	0.264222	0.335884
699	C	0.543316	0.246719	0.344645
700	C	0.580132	0.264855	0.34409
701	H	0.592574	0.251086	0.351034
702	C	0.987181	0.244696	0.337691
703	C	0.968584	0.227824	0.631468
704	C	0.931766	0.208931	0.631004
705	C	0.912621	0.207037	0.336564
706	C	0.931068	0.223731	0.37618
707	C	0.968173	0.24217	0.377602
708	H	0.981756	0.229295	0.602458
709	H	0.919055	0.19718	0.601776
710	H	0.917174	0.221931	0.404632
711	H	0.59378	0.344655	0.652287
712	C	0.524902	0.320264	0.64844
713	H	0.542928	0.347876	0.641348
714	H	0.508416	0.318887	0.676592
715	H	0.508465	0.308839	0.618811
716	H	0.530304	0.220508	0.351821
717	C	0.986392	0.258044	0.420705
718	H	0.003136	0.286256	0.416821
719	H	0.002552	0.246805	0.430444
720	H	0.968217	0.253506	0.448222
721	C	0.691515	0.373937	0.668461
722	N	0.655888	0.355405	0.668475
723	C	0.637071	0.31978	0.668458
724	N	0.655603	0.302684	0.668478
725	C	0.69123	0.319494	0.668464
726	N	0.708324	0.35512	0.668478
727	C	0.821861	0.135317	0.669282
728	N	0.857457	0.153158	0.669372
729	C	0.87569	0.188744	0.669275
730	N	0.857849	0.206499	0.669372
731	C	0.822263	0.189146	0.669282
732	N	0.804509	0.153551	0.669379
733	C	0.709797	0.300585	0.001827
734	C	0.692541	0.26417	0.992822
735	C	0.710352	0.244876	0.992678
736	C	0.746789	0.262487	0.669238
737	C	0.76429	0.298803	0.678004
738	C	0.746153	0.31748	0.677436
739	H	0.759921	0.343692	0.684383
740	C	0.766321	0.244695	0.671044
741	C	0.783201	0.24298	0.964824
742	C	0.802106	0.225068	0.96436
743	C	0.803972	0.207787	0.669907
744	C	0.787273	0.209534	0.709523
745	C	0.768836	0.2282	0.710949
746	H	0.781723	0.254677	0.935811
747	H	0.813831	0.224084	0.935122
748	H	0.789054	0.197418	0.737964
749	H	0.666359	0.251328	0.985613
750	C	0.690754	0.206844	0.981769
751	H	0.663143	0.197256	0.97467
752	H	0.692129	0.191728	0.009915
753	H	0.702188	0.201843	0.95214
754	H	0.7905	0.312003	0.685177
755	C	0.75295	0.23053	0.754048
756	H	0.72474	0.219063	0.750154
757	H	0.764183	0.257924	0.7638
758	H	0.757482	0.216886	0.781562
759	C	0.710422	0.411413	0.001821
760	C	0.746836	0.43057	0.992812
761	C	0.766132	0.467677	0.992671
762	C	0.74852	0.486502	0.669228
763	C	0.712203	0.467687	0.677988
764	C	0.693527	0.430874	0.677429
765	H	0.667317	0.418431	0.684383
766	C	0.766313	0.023826	0.671037
767	C	0.76804	0.042423	0.964814
768	C	0.785957	0.07924	0.964354
769	C	0.803221	0.098386	0.669904
770	C	0.801458	0.079939	0.709526
771	C	0.7828	0.042835	0.710945
772	H	0.756343	0.02925	0.935801
773	H	0.786938	0.09195	0.935112
774	H	0.813575	0.093834	0.737968
775	H	0.75968	0.41723	0.985616
776	C	0.804166	0.48611	0.981772
777	H	0.813754	0.468088	0.974677
778	H	0.819277	0.502598	0.009923
779	H	0.80917	0.502546	0.952144
780	H	0.699006	0.480698	0.685174
781	C	0.780464	0.024616	0.754045
782	H	0.791935	0.007877	0.750154
783	H	0.753067	0.008453	0.76379
784	H	0.7941	0.042791	0.781562
785	C	0.599596	0.301213	0.001814
786	C	0.580438	0.318469	0.992805
787	C	0.543333	0.300661	0.992667
788	C	0.524504	0.264222	0.669218
789	C	0.543316	0.246719	0.677977
790	C	0.580132	0.264855	0.677423
791	H	0.592574	0.251086	0.684367
792	C	0.987181	0.244696	0.671023
793	C	0.968584	0.227824	0.964801
794	C	0.931766	0.208931	0.964337
795	C	0.912621	0.207037	0.669897
796	C	0.931068	0.223731	0.709513
797	C	0.968173	0.24217	0.710935
798	H	0.981756	0.229295	0.935791
799	H	0.919055	0.19718	0.935108
800	H	0.917174	0.221931	0.737964
801	H	0.59378	0.344655	0.985619
802	C	0.524902	0.320264	0.981772
803	H	0.542928	0.347876	0.97468
804	H	0.508416	0.318887	0.009925
805	H	0.508465	0.308839	0.952144
806	H	0.530304	0.220508	0.685153
807	C	0.986392	0.258044	0.754038
808	H	0.003136	0.286256	0.750154
809	H	0.002552	0.246805	0.763776
810	H	0.968217	0.253506	0.781555
811	C	0.691516	0.873937	0.001794
812	N	0.655889	0.855405	0.001807
813	C	0.637072	0.819779	0.001794
814	N	0.655603	0.802684	0.001811
815	C	0.691228	0.819494	0.001797
816	N	0.708325	0.855119	0.001811
817	C	0.821863	0.635318	0.002614
818	N	0.857456	0.653156	0.002705
819	C	0.87569	0.688745	0.002608
820	N	0.857849	0.706497	0.002705
821	C	0.822262	0.689145	0.002614
822	N	0.804508	0.653552	0.002712
823	C	0.709796	0.800585	0.33516
824	C	0.69254	0.764169	0.326156
825	C	0.710353	0.744876	0.326012
826	C	0.746788	0.762487	0.002571
827	C	0.764289	0.798803	0.011338
828	C	0.746154	0.817479	0.010771
829	H	0.759919	0.843692	0.017719
830	C	0.76632	0.744695	0.004376
831	C	0.783199	0.742978	0.298158
832	C	0.802108	0.725069	0.297696
833	C	0.803973	0.707788	0.00324
834	C	0.787274	0.709533	0.042858
835	C	0.768836	0.728199	0.044282
836	H	0.781725	0.754678	0.269146
837	H	0.813832	0.724082	0.268455
838	H	0.789055	0.697417	0.071297
839	H	0.66636	0.751329	0.318948
840	C	0.690754	0.706843	0.315103
841	H	0.663141	0.697255	0.308004
842	H	0.692128	0.691728	0.343249
843	H	0.702186	0.701842	0.285473
844	H	0.790501	0.812002	0.018512
845	C	0.752949	0.73053	0.087381
846	H	0.724739	0.719063	0.083487
847	H	0.764184	0.757923	0.097135
848	H	0.757483	0.716886	0.114895
849	C	0.710423	0.911412	0.335155
850	C	0.746836	0.93057	0.326145
851	C	0.766131	0.967676	0.326005
852	C	0.748521	0.986502	0.00256
853	C	0.712204	0.967687	0.011323
854	C	0.693526	0.930873	0.010764
855	H	0.667317	0.918431	0.017716
856	C	0.766314	0.523826	0.004373
857	C	0.768039	0.542423	0.298148
858	C	0.785957	0.579239	0.297687
859	C	0.80322	0.598386	0.00324
860	C	0.801456	0.579938	0.042861
861	C	0.782798	0.542834	0.04428
862	H	0.756344	0.52925	0.269135
863	H	0.786937	0.591949	0.268447
864	H	0.813573	0.593833	0.071302
865	H	0.759678	0.917229	0.31895
866	C	0.804165	0.986109	0.315106
867	H	0.813755	0.968087	0.30801
868	H	0.819278	0.002598	0.343256
869	H	0.809171	0.002545	0.285478
870	H	0.699006	0.980698	0.018508
871	C	0.780463	0.524616	0.08738
872	H	0.791934	0.507876	0.08349
873	H	0.753068	0.508452	0.097125
874	H	0.794101	0.542792	0.114897
875	C	0.599596	0.801213	0.33515
876	C	0.580438	0.818468	0.326139
877	C	0.543333	0.800661	0.326002
878	C	0.524506	0.764224	0.00255
879	C	0.543317	0.746718	0.011312
880	C	0.580132	0.764855	0.010758
881	H	0.592573	0.751085	0.017701
882	C	0.987182	0.744695	0.004356
883	C	0.968585	0.727825	0.298135
884	C	0.931767	0.708931	0.297673
885	C	0.912621	0.707037	0.00323
886	C	0.93107	0.723732	0.042849
887	C	0.968172	0.74217	0.044269
888	H	0.981757	0.729295	0.269125
889	H	0.919056	0.697179	0.268443
890	H	0.917175	0.721931	0.071298
891	H	0.59378	0.844655	0.318955
892	C	0.524902	0.820263	0.315107
893	H	0.542927	0.847876	0.308015
894	H	0.508414	0.818887	0.343259
895	H	0.508465	0.808838	0.285478
896	H	0.530304	0.720508	0.018487
897	C	0.986391	0.758043	0.087371
898	H	0.003137	0.786255	0.083487
899	H	0.00255	0.746804	0.097111
900	H	0.968218	0.753506	0.114889
901	C	0.691516	0.873937	0.335129
902	N	0.655889	0.855405	0.335141
903	C	0.637072	0.819779	0.335127
904	N	0.655603	0.802684	0.335144
905	C	0.691228	0.819494	0.335131
906	N	0.708325	0.855119	0.335145
907	C	0.821863	0.635318	0.335948
908	N	0.857456	0.653156	0.33604
909	C	0.87569	0.688745	0.335943
910	N	0.857849	0.706497	0.336039
911	C	0.822262	0.689145	0.335947
912	N	0.804508	0.653552	0.336046
913	C	0.709796	0.800585	0.668495
914	C	0.69254	0.764169	0.659489
915	C	0.710353	0.744876	0.659345
916	C	0.746788	0.762487	0.335905
917	C	0.764289	0.798803	0.344672
918	C	0.746154	0.817479	0.344103
919	H	0.759919	0.843692	0.351051
920	C	0.76632	0.744695	0.337711
921	C	0.783199	0.742978	0.631492
922	C	0.802108	0.725069	0.631028
923	C	0.803973	0.707788	0.336574
924	C	0.787274	0.709533	0.37619
925	C	0.768836	0.728199	0.377616
926	H	0.781725	0.754678	0.602479
927	H	0.813832	0.724082	0.601789
928	H	0.789055	0.697417	0.404632
929	H	0.66636	0.751329	0.65228
930	C	0.690754	0.706843	0.648436
931	H	0.663141	0.697255	0.641338
932	H	0.692128	0.691728	0.676582
933	H	0.702186	0.701842	0.618804
934	H	0.790501	0.812002	0.351844
935	C	0.752949	0.73053	0.420715
936	H	0.724739	0.719063	0.416821
937	H	0.764184	0.757923	0.430467
938	H	0.757483	0.716886	0.448229
939	C	0.710423	0.911412	0.668488
940	C	0.746836	0.93057	0.659479
941	C	0.766131	0.967676	0.659338
942	C	0.748521	0.986502	0.335896
943	C	0.712204	0.967687	0.344655
944	C	0.693526	0.930873	0.344097
945	H	0.667317	0.918431	0.351051
946	C	0.766314	0.523826	0.337704
947	C	0.768039	0.542423	0.631482
948	C	0.785957	0.579239	0.631021
949	C	0.80322	0.598386	0.336571
950	C	0.801456	0.579938	0.376193
951	C	0.782798	0.542834	0.377613
952	H	0.756344	0.52925	0.602468
953	H	0.786937	0.591949	0.601779
954	H	0.813573	0.593833	0.404635
955	H	0.759678	0.917229	0.652283
956	C	0.804165	0.986109	0.64844
957	H	0.813755	0.968087	0.641344
958	H	0.819278	0.002598	0.676589
959	H	0.809171	0.002545	0.618811
960	H	0.699006	0.980698	0.351841
961	C	0.780463	0.524616	0.420712
962	H	0.791934	0.507876	0.416821
963	H	0.753068	0.508452	0.430457
964	H	0.794101	0.542792	0.448229
965	C	0.599596	0.801213	0.668481
966	C	0.580438	0.818468	0.659473
967	C	0.543333	0.800661	0.659335
968	C	0.524506	0.764224	0.335884
969	C	0.543317	0.746718	0.344645
970	C	0.580132	0.764855	0.34409
971	H	0.592573	0.751085	0.351034
972	C	0.987182	0.744695	0.337691
973	C	0.968585	0.727825	0.631468
974	C	0.931767	0.708931	0.631004
975	C	0.912621	0.707037	0.336564
976	C	0.93107	0.723732	0.37618
977	C	0.968172	0.74217	0.377602
978	H	0.981757	0.729295	0.602458
979	H	0.919056	0.697179	0.601776
980	H	0.917175	0.721931	0.404632
981	H	0.59378	0.844655	0.652287
982	C	0.524902	0.820263	0.64844
983	H	0.542927	0.847876	0.641348
984	H	0.508414	0.818887	0.676592
985	H	0.508465	0.808838	0.618811
986	H	0.530304	0.720508	0.351821
987	C	0.986391	0.758043	0.420705
988	H	0.003137	0.786255	0.416821
989	H	0.00255	0.746804	0.430444
990	H	0.968218	0.753506	0.448222
991	C	0.691516	0.873937	0.668461
992	N	0.655889	0.855405	0.668475
993	C	0.637072	0.819779	0.668458
994	N	0.655603	0.802684	0.668478
995	C	0.691228	0.819494	0.668464
996	N	0.708325	0.855119	0.668478
997	C	0.821863	0.635318	0.669282
998	N	0.857456	0.653156	0.669372
999	C	0.87569	0.688745	0.669275
1000	N	0.857849	0.706497	0.669372
1001	C	0.822262	0.689145	0.669282
1002	N	0.804508	0.653552	0.669379
1003	C	0.709796	0.800585	0.001827
1004	C	0.69254	0.764169	0.992822
1005	C	0.710353	0.744876	0.992678
1006	C	0.746788	0.762487	0.669238
1007	C	0.764289	0.798803	0.678004
1008	C	0.746154	0.817479	0.677436
1009	H	0.759919	0.843692	0.684383
1010	C	0.76632	0.744695	0.671044
1011	C	0.783199	0.742978	0.964824
1012	C	0.802108	0.725069	0.96436
1013	C	0.803973	0.707788	0.669907
1014	C	0.787274	0.709533	0.709523
1015	C	0.768836	0.728199	0.710949
1016	H	0.781725	0.754678	0.935811
1017	H	0.813832	0.724082	0.935122
1018	H	0.789055	0.697417	0.737964
1019	H	0.66636	0.751329	0.985613
1020	C	0.690754	0.706843	0.981769
1021	H	0.663141	0.697255	0.97467
1022	H	0.692128	0.691728	0.009915
1023	H	0.702186	0.701842	0.95214
1024	H	0.790501	0.812002	0.685177
1025	C	0.752949	0.73053	0.754048
1026	H	0.724739	0.719063	0.750154
1027	H	0.764184	0.757923	0.7638
1028	H	0.757483	0.716886	0.781562
1029	C	0.710423	0.911412	0.001821
1030	C	0.746836	0.93057	0.992812
1031	C	0.766131	0.967676	0.992671
1032	C	0.748521	0.986502	0.669228
1033	C	0.712204	0.967687	0.677988
1034	C	0.693526	0.930873	0.677429
1035	H	0.667317	0.918431	0.684383
1036	C	0.766314	0.523826	0.671037
1037	C	0.768039	0.542423	0.964814
1038	C	0.785957	0.579239	0.964354
1039	C	0.80322	0.598386	0.669904
1040	C	0.801456	0.579938	0.709526
1041	C	0.782798	0.542834	0.710945
1042	H	0.756344	0.52925	0.935801
1043	H	0.786937	0.591949	0.935112
1044	H	0.813573	0.593833	0.737968
1045	H	0.759678	0.917229	0.985616
1046	C	0.804165	0.986109	0.981772
1047	H	0.813755	0.968087	0.974677
1048	H	0.819278	0.002598	0.009923
1049	H	0.809171	0.002545	0.952144
1050	H	0.699006	0.980698	0.685174
1051	C	0.780463	0.524616	0.754045
1052	H	0.791934	0.507876	0.750154
1053	H	0.753068	0.508452	0.76379
1054	H	0.794101	0.542792	0.781562
1055	C	0.599596	0.801213	0.001814
1056	C	0.580438	0.818468	0.992805
1057	C	0.543333	0.800661	0.992667
1058	C	0.524506	0.764224	0.669218
1059	C	0.543317	0.746718	0.677977
1060	C	0.580132	0.764855	0.677423
1061	H	0.592573	0.751085	0.684367
1062	C	0.987182	0.744695	0.671023
1063	C	0.968585	0.727825	0.964801
1064	C	0.931767	0.708931	0.964337
1065	C	0.912621	0.707037	0.669897
1066	C	0.93107	0.723732	0.709513
1067	C	0.968172	0.74217	0.710935
1068	H	0.981757	0.729295	0.935791
1069	H	0.919056	0.697179	0.935108
1070	H	0.917175	0.721931	0.737964
1071	H	0.59378	0.844655	0.985619
1072	C	0.524902	0.820263	0.981772
1073	H	0.542927	0.847876	0.97468
1074	H	0.508414	0.818887	0.009925
1075	H	0.508465	0.808838	0.952144
1076	H	0.530304	0.720508	0.685153
1077	C	0.986391	0.758043	0.754038
1078	H	0.003137	0.786255	0.750154
1079	H	0.00255	0.746804	0.763776
1080	H	0.968218	0.753506	0.781555
