data_C360H144N216O216_2018-02-15_10:32:36
#******************************************
#
# CIF file created by Zeo++
# Zeo++ is an open source package to
# analyze microporous materials
#
#*******************************************

_cell_length_a		43.6904   
_cell_length_b		43.6904   
_cell_length_c		30.079   
_cell_angle_alpha		90   
_cell_angle_beta		90   
_cell_angle_gamma		120   

_symmetry_space_group_name_H-M		'P1'
_symmetry_Int_Tables_number		1
_symmetry_cell_setting		Monoclinic

loop_
_symmetry_equiv_pos_as_xyz
'+x,+y,+z'

loop_
_atom_site_label
_atom_site_type_symbol
_atom_site_fract_x
_atom_site_fract_y
_atom_site_fract_z
1	C	0.129963	0.323638	0.29585
2	N	0.156454	0.35784	0.96289
3	C	0.191026	0.366747	0.962495
4	N	0.198742	0.340259	0.962854
5	C	0.17308	0.305685	0.962478
6	N	0.138879	0.297978	0.962884
7	C	0.218064	0.402119	0.967039
8	C	0.181413	0.278645	0.967033
9	C	0.094587	0.315286	0.967109
10	O	0.154003	0.245217	0.971787
11	O	0.088555	0.342688	0.97185
12	O	0.2515	0.408148	0.971737
13	C	0.366895	0.177054	0.372396
14	N	0.342823	0.141976	0.03863
15	C	0.307498	0.129809	0.038988
16	N	0.296491	0.15388	0.038623
17	C	0.319652	0.189203	0.039044
18	N	0.35473	0.200213	0.038681
19	C	0.2828	0.09368	0.033932
20	C	0.30824	0.213918	0.034029
21	C	0.403019	0.188456	0.034033
22	O	0.33334	0.248593	0.035605
23	O	0.412581	0.163346	0.035587
24	O	0.248123	0.0841	0.035466
25	C	0.228001	0.263829	0.313214
26	C	0.26111	0.270056	0.297693
27	C	0.276651	0.250251	0.312663
28	C	0.259904	0.224503	0.013527
29	C	0.226245	0.217623	0.029096
30	H	0.273518	0.288265	0.272931
31	C	0.210909	0.237082	0.012183
32	H	0.18804	0.233151	0.0265
33	N	0.306188	0.253122	0.28933
34	N	0.209136	0.192829	0.063816
35	O	0.331837	0.284267	0.288794
36	O	0.205852	0.207223	0.09828
37	O	0.298432	0.242435	0.249909
38	O	0.17917	0.168394	0.052139
39	N	0.21527	0.284948	0.298452
40	H	0.232454	0.307199	0.284527
41	N	0.27354	0.204363	0.029391
42	H	0.256571	0.180681	0.03974
43	C	0.232893	0.46353	0.313179
44	C	0.226655	0.490403	0.297654
45	C	0.246498	0.025762	0.312573
46	C	0.272232	0.034764	0.013458
47	C	0.279095	0.007983	0.029059
48	H	0.208498	0.484613	0.272827
49	C	0.259633	0.473185	0.012158
50	H	0.263557	0.454246	0.026487
51	N	0.243673	0.052433	0.289187
52	N	0.303874	0.015673	0.063799
53	O	0.21254	0.046971	0.288608
54	O	0.289463	0.998007	0.098264
55	O	0.254374	0.055324	0.249778
56	O	0.328308	0.01013	0.052155
57	N	0.211765	0.429674	0.298433
58	H	0.189512	0.424605	0.284516
59	N	0.292367	0.068543	0.029316
60	H	0.316045	0.075258	0.039682
61	C	0.03319	0.268692	0.313294
62	C	0.006317	0.235567	0.297803
63	C	0.470965	0.220046	0.312747
64	C	0.461955	0.236799	0.013593
65	C	0.488744	0.270431	0.029211
66	H	0.012102	0.2232	0.27297
67	C	0.023549	0.285744	0.012339
68	H	0.042488	0.30864	0.026604
69	N	0.444307	0.190548	0.289344
70	N	0.481061	0.287538	0.063934
71	O	0.449769	0.164878	0.288778
72	O	0.49871	0.290784	0.098412
73	O	0.441414	0.198354	0.249934
74	O	0.486626	0.31752	0.052278
75	N	0.06704	0.281428	0.298524
76	H	0.072106	0.264251	0.284581
77	N	0.428176	0.223157	0.029452
78	H	0.421469	0.240123	0.039824
79	C	0.129963	0.323638	0.629183
80	N	0.156454	0.35784	0.296222
81	C	0.191026	0.366747	0.295826
82	N	0.198742	0.340259	0.296187
83	C	0.17308	0.305685	0.295811
84	N	0.138879	0.297978	0.296215
85	C	0.218064	0.402119	0.300373
86	C	0.181413	0.278645	0.300364
87	C	0.094587	0.315286	0.300442
88	O	0.154003	0.245217	0.305118
89	O	0.088555	0.342688	0.305184
90	O	0.2515	0.408148	0.305068
91	C	0.366895	0.177054	0.705728
92	N	0.342823	0.141976	0.371963
93	C	0.307498	0.129809	0.372323
94	N	0.296491	0.15388	0.371957
95	C	0.319652	0.189203	0.372379
96	N	0.35473	0.200213	0.372013
97	C	0.2828	0.09368	0.367266
98	C	0.30824	0.213918	0.367362
99	C	0.403019	0.188456	0.367366
100	O	0.33334	0.248593	0.368938
101	O	0.412581	0.163346	0.368922
102	O	0.248123	0.0841	0.368798
103	C	0.228001	0.263829	0.646547
104	C	0.26111	0.270056	0.631028
105	C	0.276651	0.250251	0.645995
106	C	0.259904	0.224503	0.34686
107	C	0.226245	0.217623	0.362429
108	H	0.273518	0.288265	0.606263
109	C	0.210909	0.237082	0.345516
110	H	0.18804	0.233151	0.359835
111	N	0.306188	0.253122	0.622663
112	N	0.209136	0.192829	0.39715
113	O	0.331837	0.284267	0.622128
114	O	0.205852	0.207223	0.431613
115	O	0.298432	0.242435	0.583244
116	O	0.17917	0.168394	0.385471
117	N	0.21527	0.284948	0.631786
118	H	0.232454	0.307199	0.617862
119	N	0.27354	0.204363	0.362724
120	H	0.256571	0.180681	0.373074
121	C	0.232893	0.46353	0.646514
122	C	0.226655	0.490403	0.630988
123	C	0.246498	0.025762	0.645905
124	C	0.272232	0.034764	0.34679
125	C	0.279095	0.007983	0.362392
126	H	0.208498	0.484613	0.60616
127	C	0.259633	0.473185	0.34549
128	H	0.263557	0.454246	0.359819
129	N	0.243673	0.052433	0.62252
130	N	0.303874	0.015673	0.397131
131	O	0.21254	0.046971	0.621942
132	O	0.289463	0.998007	0.431596
133	O	0.254374	0.055324	0.583111
134	O	0.328308	0.01013	0.385488
135	N	0.211765	0.429674	0.631766
136	H	0.189512	0.424605	0.617849
137	N	0.292367	0.068543	0.362651
138	H	0.316045	0.075258	0.373017
139	C	0.03319	0.268692	0.646627
140	C	0.006317	0.235567	0.631137
141	C	0.470965	0.220046	0.646081
142	C	0.461955	0.236799	0.346926
143	C	0.488744	0.270431	0.362545
144	H	0.012102	0.2232	0.606303
145	C	0.023549	0.285744	0.345673
146	H	0.042488	0.30864	0.359939
147	N	0.444307	0.190548	0.62268
148	N	0.481061	0.287538	0.397267
149	O	0.449769	0.164878	0.622111
150	O	0.49871	0.290784	0.431746
151	O	0.441414	0.198354	0.583267
152	O	0.486626	0.31752	0.385611
153	N	0.06704	0.281428	0.631859
154	H	0.072106	0.264251	0.617916
155	N	0.428176	0.223157	0.362784
156	H	0.421469	0.240123	0.373157
157	C	0.129963	0.323638	0.962518
158	N	0.156454	0.35784	0.629555
159	C	0.191026	0.366747	0.629159
160	N	0.198742	0.340259	0.629522
161	C	0.17308	0.305685	0.629146
162	N	0.138879	0.297978	0.629548
163	C	0.218064	0.402119	0.633707
164	C	0.181413	0.278645	0.633697
165	C	0.094587	0.315286	0.633774
166	O	0.154003	0.245217	0.638452
167	O	0.088555	0.342688	0.638518
168	O	0.2515	0.408148	0.638402
169	C	0.366895	0.177054	0.039061
170	N	0.342823	0.141976	0.705299
171	C	0.307498	0.129809	0.705654
172	N	0.296491	0.15388	0.705292
173	C	0.319652	0.189203	0.705711
174	N	0.35473	0.200213	0.705349
175	C	0.2828	0.09368	0.700601
176	C	0.30824	0.213918	0.700698
177	C	0.403019	0.188456	0.700701
178	O	0.33334	0.248593	0.70227
179	O	0.412581	0.163346	0.702253
180	O	0.248123	0.0841	0.702134
181	C	0.228001	0.263829	0.979882
182	C	0.26111	0.270056	0.96436
183	C	0.276651	0.250251	0.97933
184	C	0.259904	0.224503	0.680195
185	C	0.226245	0.217623	0.695764
186	H	0.273518	0.288265	0.939598
187	C	0.210909	0.237082	0.678848
188	H	0.18804	0.233151	0.693167
189	N	0.306188	0.253122	0.955998
190	N	0.209136	0.192829	0.730482
191	O	0.331837	0.284267	0.955463
192	O	0.205852	0.207223	0.764948
193	O	0.298432	0.242435	0.916576
194	O	0.17917	0.168394	0.718806
195	N	0.21527	0.284948	0.965121
196	H	0.232454	0.307199	0.951194
197	N	0.27354	0.204363	0.69606
198	H	0.256571	0.180681	0.706409
199	C	0.232893	0.46353	0.979846
200	C	0.226655	0.490403	0.96432
201	C	0.246498	0.025762	0.97924
202	C	0.272232	0.034764	0.680125
203	C	0.279095	0.007983	0.695727
204	H	0.208498	0.484613	0.939495
205	C	0.259633	0.473185	0.678825
206	H	0.263557	0.454246	0.693154
207	N	0.243673	0.052433	0.955852
208	N	0.303874	0.015673	0.730466
209	O	0.21254	0.046971	0.955274
210	O	0.289463	0.998007	0.764932
211	O	0.254374	0.055324	0.916446
212	O	0.328308	0.01013	0.718823
213	N	0.211765	0.429674	0.965101
214	H	0.189512	0.424605	0.951184
215	N	0.292367	0.068543	0.695983
216	H	0.316045	0.075258	0.706349
217	C	0.03319	0.268692	0.979962
218	C	0.006317	0.235567	0.964469
219	C	0.470965	0.220046	0.979413
220	C	0.461955	0.236799	0.680261
221	C	0.488744	0.270431	0.695877
222	H	0.012102	0.2232	0.939638
223	C	0.023549	0.285744	0.679005
224	H	0.042488	0.30864	0.69327
225	N	0.444307	0.190548	0.956012
226	N	0.481061	0.287538	0.730602
227	O	0.449769	0.164878	0.955446
228	O	0.49871	0.290784	0.765078
229	O	0.441414	0.198354	0.916602
230	O	0.486626	0.31752	0.718946
231	N	0.06704	0.281428	0.965191
232	H	0.072106	0.264251	0.951248
233	N	0.428176	0.223157	0.69612
234	H	0.421469	0.240123	0.706492
235	C	0.129963	0.823638	0.29585
236	N	0.156453	0.85784	0.96289
237	C	0.191025	0.866746	0.962495
238	N	0.198742	0.840259	0.962854
239	C	0.17308	0.805684	0.962478
240	N	0.138879	0.797978	0.962884
241	C	0.218063	0.902119	0.967039
242	C	0.181412	0.778645	0.967033
243	C	0.094588	0.815286	0.967109
244	O	0.154003	0.745217	0.971787
245	O	0.088555	0.842688	0.97185
246	O	0.2515	0.908148	0.971737
247	C	0.366895	0.677054	0.372396
248	N	0.342823	0.641977	0.03863
249	C	0.307497	0.629809	0.038988
250	N	0.296492	0.653881	0.038623
251	C	0.319652	0.689203	0.039044
252	N	0.35473	0.700214	0.038681
253	C	0.2828	0.59368	0.033932
254	C	0.308239	0.713917	0.034029
255	C	0.403019	0.688455	0.034033
256	O	0.33334	0.748592	0.035605
257	O	0.412581	0.663345	0.035587
258	O	0.248123	0.5841	0.035466
259	C	0.228001	0.763829	0.313214
260	C	0.261109	0.770055	0.297692
261	C	0.276652	0.750252	0.312662
262	C	0.259903	0.724502	0.013527
263	C	0.226245	0.717623	0.029096
264	H	0.273518	0.788265	0.272931
265	C	0.210909	0.737082	0.012183
266	H	0.188039	0.73315	0.0265
267	N	0.306188	0.753122	0.28933
268	N	0.209136	0.692829	0.063816
269	O	0.331836	0.784266	0.288794
270	O	0.205852	0.707223	0.09828
271	O	0.298431	0.742434	0.249909
272	O	0.179169	0.668393	0.052139
273	N	0.215269	0.784948	0.298452
274	H	0.232454	0.807199	0.284527
275	N	0.273539	0.704363	0.029391
276	H	0.25657	0.68068	0.03974
277	C	0.232893	0.96353	0.313179
278	C	0.226656	0.990406	0.297654
279	C	0.246499	0.525763	0.312573
280	C	0.272231	0.534765	0.013458
281	C	0.279095	0.507984	0.029059
282	H	0.208499	0.984615	0.272827
283	C	0.259633	0.973184	0.012158
284	H	0.263557	0.954245	0.026487
285	N	0.243672	0.552432	0.289187
286	N	0.303873	0.515672	0.063799
287	O	0.21254	0.54697	0.288608
288	O	0.289463	0.498007	0.098264
289	O	0.254374	0.555324	0.249778
290	O	0.328307	0.51013	0.052155
291	N	0.211767	0.929677	0.298433
292	H	0.189514	0.924608	0.284516
293	N	0.292367	0.568544	0.029316
294	H	0.316045	0.575257	0.039682
295	C	0.03319	0.768694	0.313294
296	C	0.006317	0.735565	0.297803
297	C	0.470964	0.720046	0.312747
298	C	0.461956	0.7368	0.013593
299	C	0.488744	0.770431	0.029211
300	H	0.012102	0.723199	0.27297
301	C	0.023548	0.785744	0.012339
302	H	0.042487	0.808639	0.026604
303	N	0.444307	0.690549	0.289344
304	N	0.48106	0.787538	0.063934
305	O	0.449769	0.664878	0.288778
306	O	0.498712	0.790786	0.098412
307	O	0.441413	0.698353	0.249934
308	O	0.486626	0.817519	0.052278
309	N	0.067039	0.781428	0.298524
310	H	0.072106	0.764251	0.284581
311	N	0.428177	0.723157	0.029452
312	H	0.421469	0.740124	0.039824
313	C	0.129963	0.823638	0.629183
314	N	0.156453	0.85784	0.296222
315	C	0.191025	0.866746	0.295826
316	N	0.198742	0.840259	0.296187
317	C	0.17308	0.805684	0.295811
318	N	0.138879	0.797978	0.296215
319	C	0.218063	0.902119	0.300373
320	C	0.181412	0.778645	0.300364
321	C	0.094588	0.815286	0.300442
322	O	0.154003	0.745217	0.305118
323	O	0.088555	0.842688	0.305184
324	O	0.2515	0.908148	0.305068
325	C	0.366895	0.677054	0.705728
326	N	0.342823	0.641977	0.371963
327	C	0.307497	0.629809	0.372323
328	N	0.296492	0.653881	0.371957
329	C	0.319652	0.689203	0.372379
330	N	0.35473	0.700214	0.372013
331	C	0.2828	0.59368	0.367266
332	C	0.308239	0.713917	0.367362
333	C	0.403019	0.688455	0.367366
334	O	0.33334	0.748592	0.368938
335	O	0.412581	0.663345	0.368922
336	O	0.248123	0.5841	0.368798
337	C	0.228001	0.763829	0.646547
338	C	0.261109	0.770055	0.631028
339	C	0.276652	0.750252	0.645995
340	C	0.259903	0.724502	0.34686
341	C	0.226245	0.717623	0.362429
342	H	0.273518	0.788265	0.606263
343	C	0.210909	0.737082	0.345516
344	H	0.188039	0.73315	0.359835
345	N	0.306188	0.753122	0.622663
346	N	0.209136	0.692829	0.39715
347	O	0.331836	0.784266	0.622128
348	O	0.205852	0.707223	0.431613
349	O	0.298431	0.742434	0.583244
350	O	0.179169	0.668393	0.385471
351	N	0.215269	0.784948	0.631786
352	H	0.232454	0.807199	0.617862
353	N	0.273539	0.704363	0.362724
354	H	0.25657	0.68068	0.373074
355	C	0.232893	0.96353	0.646514
356	C	0.226656	0.990406	0.630988
357	C	0.246499	0.525763	0.645905
358	C	0.272231	0.534765	0.34679
359	C	0.279095	0.507984	0.362392
360	H	0.208499	0.984615	0.60616
361	C	0.259633	0.973184	0.34549
362	H	0.263557	0.954245	0.359819
363	N	0.243672	0.552432	0.62252
364	N	0.303873	0.515672	0.397131
365	O	0.21254	0.54697	0.621942
366	O	0.289463	0.498007	0.431596
367	O	0.254374	0.555324	0.583111
368	O	0.328307	0.51013	0.385488
369	N	0.211767	0.929677	0.631766
370	H	0.189514	0.924608	0.617849
371	N	0.292367	0.568544	0.362651
372	H	0.316045	0.575257	0.373017
373	C	0.03319	0.768694	0.646627
374	C	0.006317	0.735565	0.631137
375	C	0.470964	0.720046	0.646081
376	C	0.461956	0.7368	0.346926
377	C	0.488744	0.770431	0.362545
378	H	0.012102	0.723199	0.606303
379	C	0.023548	0.785744	0.345673
380	H	0.042487	0.808639	0.359939
381	N	0.444307	0.690549	0.62268
382	N	0.48106	0.787538	0.397267
383	O	0.449769	0.664878	0.622111
384	O	0.498712	0.790786	0.431746
385	O	0.441413	0.698353	0.583267
386	O	0.486626	0.817519	0.385611
387	N	0.067039	0.781428	0.631859
388	H	0.072106	0.764251	0.617916
389	N	0.428177	0.723157	0.362784
390	H	0.421469	0.740124	0.373157
391	C	0.129963	0.823638	0.962518
392	N	0.156453	0.85784	0.629555
393	C	0.191025	0.866746	0.629159
394	N	0.198742	0.840259	0.629522
395	C	0.17308	0.805684	0.629146
396	N	0.138879	0.797978	0.629548
397	C	0.218063	0.902119	0.633707
398	C	0.181412	0.778645	0.633697
399	C	0.094588	0.815286	0.633774
400	O	0.154003	0.745217	0.638452
401	O	0.088555	0.842688	0.638518
402	O	0.2515	0.908148	0.638402
403	C	0.366895	0.677054	0.039061
404	N	0.342823	0.641977	0.705299
405	C	0.307497	0.629809	0.705654
406	N	0.296492	0.653881	0.705292
407	C	0.319652	0.689203	0.705711
408	N	0.35473	0.700214	0.705349
409	C	0.2828	0.59368	0.700601
410	C	0.308239	0.713917	0.700698
411	C	0.403019	0.688455	0.700701
412	O	0.33334	0.748592	0.70227
413	O	0.412581	0.663345	0.702253
414	O	0.248123	0.5841	0.702134
415	C	0.228001	0.763829	0.979882
416	C	0.261109	0.770055	0.96436
417	C	0.276652	0.750252	0.97933
418	C	0.259903	0.724502	0.680195
419	C	0.226245	0.717623	0.695764
420	H	0.273518	0.788265	0.939598
421	C	0.210909	0.737082	0.678848
422	H	0.188039	0.73315	0.693167
423	N	0.306188	0.753122	0.955998
424	N	0.209136	0.692829	0.730482
425	O	0.331836	0.784266	0.955463
426	O	0.205852	0.707223	0.764948
427	O	0.298431	0.742434	0.916576
428	O	0.179169	0.668393	0.718806
429	N	0.215269	0.784948	0.965121
430	H	0.232454	0.807199	0.951194
431	N	0.273539	0.704363	0.69606
432	H	0.25657	0.68068	0.706409
433	C	0.232893	0.96353	0.979846
434	C	0.226656	0.990406	0.96432
435	C	0.246499	0.525763	0.97924
436	C	0.272231	0.534765	0.680125
437	C	0.279095	0.507984	0.695727
438	H	0.208499	0.984615	0.939495
439	C	0.259633	0.973184	0.678825
440	H	0.263557	0.954245	0.693154
441	N	0.243672	0.552432	0.955852
442	N	0.303873	0.515672	0.730466
443	O	0.21254	0.54697	0.955274
444	O	0.289463	0.498007	0.764932
445	O	0.254374	0.555324	0.916446
446	O	0.328307	0.51013	0.718823
447	N	0.211767	0.929677	0.965101
448	H	0.189514	0.924608	0.951184
449	N	0.292367	0.568544	0.695983
450	H	0.316045	0.575257	0.706349
451	C	0.03319	0.768694	0.979962
452	C	0.006317	0.735565	0.964469
453	C	0.470964	0.720046	0.979413
454	C	0.461956	0.7368	0.680261
455	C	0.488744	0.770431	0.695877
456	H	0.012102	0.723199	0.939638
457	C	0.023548	0.785744	0.679005
458	H	0.042487	0.808639	0.69327
459	N	0.444307	0.690549	0.956012
460	N	0.48106	0.787538	0.730602
461	O	0.449769	0.664878	0.955446
462	O	0.498712	0.790786	0.765078
463	O	0.441413	0.698353	0.916602
464	O	0.486626	0.817519	0.718946
465	N	0.067039	0.781428	0.965191
466	H	0.072106	0.764251	0.951248
467	N	0.428177	0.723157	0.69612
468	H	0.421469	0.740124	0.706492
469	C	0.629963	0.323638	0.29585
470	N	0.656455	0.35784	0.96289
471	C	0.691027	0.366747	0.962495
472	N	0.698742	0.340259	0.962854
473	C	0.67308	0.305685	0.962478
474	N	0.638879	0.297978	0.962884
475	C	0.718063	0.402119	0.967039
476	C	0.681414	0.278645	0.967033
477	C	0.594588	0.315286	0.967109
478	O	0.654004	0.245217	0.971787
479	O	0.588555	0.342688	0.97185
480	O	0.751501	0.408148	0.971737
481	C	0.866895	0.177054	0.372396
482	N	0.842823	0.141976	0.03863
483	C	0.807498	0.129809	0.038988
484	N	0.796492	0.15388	0.038623
485	C	0.819653	0.189203	0.039044
486	N	0.85473	0.200213	0.038681
487	C	0.7828	0.09368	0.033932
488	C	0.808239	0.213918	0.034029
489	C	0.903019	0.188456	0.034033
490	O	0.83334	0.248593	0.035605
491	O	0.912581	0.163346	0.035587
492	O	0.748123	0.0841	0.035466
493	C	0.728002	0.263829	0.313214
494	C	0.76111	0.270056	0.297693
495	C	0.776651	0.250251	0.312663
496	C	0.759904	0.224503	0.013527
497	C	0.726244	0.217623	0.029096
498	H	0.773518	0.288265	0.272931
499	C	0.710909	0.237082	0.012183
500	H	0.68804	0.233151	0.0265
501	N	0.806188	0.253122	0.28933
502	N	0.709135	0.192829	0.063816
503	O	0.831836	0.284267	0.288794
504	O	0.705854	0.207223	0.09828
505	O	0.798432	0.242435	0.249909
506	O	0.67917	0.168394	0.052139
507	N	0.715271	0.284948	0.298452
508	H	0.732454	0.307199	0.284527
509	N	0.77354	0.204363	0.029391
510	H	0.756572	0.180681	0.03974
511	C	0.732893	0.46353	0.313179
512	C	0.726655	0.490403	0.297654
513	C	0.7465	0.025762	0.312573
514	C	0.772232	0.034764	0.013458
515	C	0.779095	0.007983	0.029059
516	H	0.708498	0.484613	0.272827
517	C	0.759634	0.473185	0.012158
518	H	0.763559	0.454246	0.026487
519	N	0.743674	0.052433	0.289187
520	N	0.803874	0.015673	0.063799
521	O	0.712541	0.046971	0.288608
522	O	0.789463	0.998007	0.098264
523	O	0.754373	0.055324	0.249778
524	O	0.828308	0.01013	0.052155
525	N	0.711766	0.429674	0.298433
526	H	0.689513	0.424605	0.284516
527	N	0.792367	0.068543	0.029316
528	H	0.816045	0.075258	0.039682
529	C	0.533191	0.268692	0.313294
530	C	0.506317	0.235567	0.297803
531	C	0.970965	0.220046	0.312747
532	C	0.961955	0.236799	0.013593
533	C	0.988744	0.270431	0.029211
534	H	0.512102	0.2232	0.27297
535	C	0.523548	0.285744	0.012339
536	H	0.542487	0.30864	0.026604
537	N	0.944307	0.190548	0.289344
538	N	0.981061	0.287538	0.063934
539	O	0.949769	0.164878	0.288778
540	O	0.99871	0.290784	0.098412
541	O	0.941414	0.198354	0.249934
542	O	0.986626	0.31752	0.052278
543	N	0.567041	0.281428	0.298524
544	H	0.572106	0.264251	0.284581
545	N	0.928179	0.223157	0.029452
546	H	0.921469	0.240123	0.039824
547	C	0.629963	0.323638	0.629183
548	N	0.656455	0.35784	0.296222
549	C	0.691027	0.366747	0.295826
550	N	0.698742	0.340259	0.296187
551	C	0.67308	0.305685	0.295811
552	N	0.638879	0.297978	0.296215
553	C	0.718063	0.402119	0.300373
554	C	0.681414	0.278645	0.300364
555	C	0.594588	0.315286	0.300442
556	O	0.654004	0.245217	0.305118
557	O	0.588555	0.342688	0.305184
558	O	0.751501	0.408148	0.305068
559	C	0.866895	0.177054	0.705728
560	N	0.842823	0.141976	0.371963
561	C	0.807498	0.129809	0.372323
562	N	0.796492	0.15388	0.371957
563	C	0.819653	0.189203	0.372379
564	N	0.85473	0.200213	0.372013
565	C	0.7828	0.09368	0.367266
566	C	0.808239	0.213918	0.367362
567	C	0.903019	0.188456	0.367366
568	O	0.83334	0.248593	0.368938
569	O	0.912581	0.163346	0.368922
570	O	0.748123	0.0841	0.368798
571	C	0.728002	0.263829	0.646547
572	C	0.76111	0.270056	0.631028
573	C	0.776651	0.250251	0.645995
574	C	0.759904	0.224503	0.34686
575	C	0.726244	0.217623	0.362429
576	H	0.773518	0.288265	0.606263
577	C	0.710909	0.237082	0.345516
578	H	0.68804	0.233151	0.359835
579	N	0.806188	0.253122	0.622663
580	N	0.709135	0.192829	0.39715
581	O	0.831836	0.284267	0.622128
582	O	0.705854	0.207223	0.431613
583	O	0.798432	0.242435	0.583244
584	O	0.67917	0.168394	0.385471
585	N	0.715271	0.284948	0.631786
586	H	0.732454	0.307199	0.617862
587	N	0.77354	0.204363	0.362724
588	H	0.756572	0.180681	0.373074
589	C	0.732893	0.46353	0.646514
590	C	0.726655	0.490403	0.630988
591	C	0.7465	0.025762	0.645905
592	C	0.772232	0.034764	0.34679
593	C	0.779095	0.007983	0.362392
594	H	0.708498	0.484613	0.60616
595	C	0.759634	0.473185	0.34549
596	H	0.763559	0.454246	0.359819
597	N	0.743674	0.052433	0.62252
598	N	0.803874	0.015673	0.397131
599	O	0.712541	0.046971	0.621942
600	O	0.789463	0.998007	0.431596
601	O	0.754373	0.055324	0.583111
602	O	0.828308	0.01013	0.385488
603	N	0.711766	0.429674	0.631766
604	H	0.689513	0.424605	0.617849
605	N	0.792367	0.068543	0.362651
606	H	0.816045	0.075258	0.373017
607	C	0.533191	0.268692	0.646627
608	C	0.506317	0.235567	0.631137
609	C	0.970965	0.220046	0.646081
610	C	0.961955	0.236799	0.346926
611	C	0.988744	0.270431	0.362545
612	H	0.512102	0.2232	0.606303
613	C	0.523548	0.285744	0.345673
614	H	0.542487	0.30864	0.359939
615	N	0.944307	0.190548	0.62268
616	N	0.981061	0.287538	0.397267
617	O	0.949769	0.164878	0.622111
618	O	0.99871	0.290784	0.431746
619	O	0.941414	0.198354	0.583267
620	O	0.986626	0.31752	0.385611
621	N	0.567041	0.281428	0.631859
622	H	0.572106	0.264251	0.617916
623	N	0.928179	0.223157	0.362784
624	H	0.921469	0.240123	0.373157
625	C	0.629963	0.323638	0.962518
626	N	0.656455	0.35784	0.629555
627	C	0.691027	0.366747	0.629159
628	N	0.698742	0.340259	0.629522
629	C	0.67308	0.305685	0.629146
630	N	0.638879	0.297978	0.629548
631	C	0.718063	0.402119	0.633707
632	C	0.681414	0.278645	0.633697
633	C	0.594588	0.315286	0.633774
634	O	0.654004	0.245217	0.638452
635	O	0.588555	0.342688	0.638518
636	O	0.751501	0.408148	0.638402
637	C	0.866895	0.177054	0.039061
638	N	0.842823	0.141976	0.705299
639	C	0.807498	0.129809	0.705654
640	N	0.796492	0.15388	0.705292
641	C	0.819653	0.189203	0.705711
642	N	0.85473	0.200213	0.705349
643	C	0.7828	0.09368	0.700601
644	C	0.808239	0.213918	0.700698
645	C	0.903019	0.188456	0.700701
646	O	0.83334	0.248593	0.70227
647	O	0.912581	0.163346	0.702253
648	O	0.748123	0.0841	0.702134
649	C	0.728002	0.263829	0.979882
650	C	0.76111	0.270056	0.96436
651	C	0.776651	0.250251	0.97933
652	C	0.759904	0.224503	0.680195
653	C	0.726244	0.217623	0.695764
654	H	0.773518	0.288265	0.939598
655	C	0.710909	0.237082	0.678848
656	H	0.68804	0.233151	0.693167
657	N	0.806188	0.253122	0.955998
658	N	0.709135	0.192829	0.730482
659	O	0.831836	0.284267	0.955463
660	O	0.705854	0.207223	0.764948
661	O	0.798432	0.242435	0.916576
662	O	0.67917	0.168394	0.718806
663	N	0.715271	0.284948	0.965121
664	H	0.732454	0.307199	0.951194
665	N	0.77354	0.204363	0.69606
666	H	0.756572	0.180681	0.706409
667	C	0.732893	0.46353	0.979846
668	C	0.726655	0.490403	0.96432
669	C	0.7465	0.025762	0.97924
670	C	0.772232	0.034764	0.680125
671	C	0.779095	0.007983	0.695727
672	H	0.708498	0.484613	0.939495
673	C	0.759634	0.473185	0.678825
674	H	0.763559	0.454246	0.693154
675	N	0.743674	0.052433	0.955852
676	N	0.803874	0.015673	0.730466
677	O	0.712541	0.046971	0.955274
678	O	0.789463	0.998007	0.764932
679	O	0.754373	0.055324	0.916446
680	O	0.828308	0.01013	0.718823
681	N	0.711766	0.429674	0.965101
682	H	0.689513	0.424605	0.951184
683	N	0.792367	0.068543	0.695983
684	H	0.816045	0.075258	0.706349
685	C	0.533191	0.268692	0.979962
686	C	0.506317	0.235567	0.964469
687	C	0.970965	0.220046	0.979413
688	C	0.961955	0.236799	0.680261
689	C	0.988744	0.270431	0.695877
690	H	0.512102	0.2232	0.939638
691	C	0.523548	0.285744	0.679005
692	H	0.542487	0.30864	0.69327
693	N	0.944307	0.190548	0.956012
694	N	0.981061	0.287538	0.730602
695	O	0.949769	0.164878	0.955446
696	O	0.99871	0.290784	0.765078
697	O	0.941414	0.198354	0.916602
698	O	0.986626	0.31752	0.718946
699	N	0.567041	0.281428	0.965191
700	H	0.572106	0.264251	0.951248
701	N	0.928179	0.223157	0.69612
702	H	0.921469	0.240123	0.706492
703	C	0.629962	0.823638	0.29585
704	N	0.656454	0.85784	0.96289
705	C	0.691027	0.866746	0.962495
706	N	0.698742	0.840259	0.962854
707	C	0.67308	0.805684	0.962478
708	N	0.638879	0.797978	0.962884
709	C	0.718063	0.902119	0.967039
710	C	0.681412	0.778645	0.967033
711	C	0.594587	0.815286	0.967109
712	O	0.654005	0.745217	0.971787
713	O	0.588555	0.842688	0.97185
714	O	0.751501	0.908148	0.971737
715	C	0.866895	0.677054	0.372396
716	N	0.842824	0.641977	0.03863
717	C	0.807498	0.629809	0.038988
718	N	0.796492	0.653881	0.038623
719	C	0.819653	0.689203	0.039044
720	N	0.85473	0.700214	0.038681
721	C	0.782801	0.59368	0.033932
722	C	0.808239	0.713917	0.034029
723	C	0.903019	0.688455	0.034033
724	O	0.83334	0.748592	0.035605
725	O	0.91258	0.663345	0.035587
726	O	0.748123	0.5841	0.035466
727	C	0.728002	0.763829	0.313214
728	C	0.76111	0.770055	0.297692
729	C	0.776651	0.750252	0.312662
730	C	0.759904	0.724502	0.013527
731	C	0.726244	0.717623	0.029096
732	H	0.773518	0.788265	0.272931
733	C	0.710909	0.737082	0.012183
734	H	0.688039	0.73315	0.0265
735	N	0.806189	0.753122	0.28933
736	N	0.709135	0.692829	0.063816
737	O	0.831836	0.784266	0.288794
738	O	0.705851	0.707223	0.09828
739	O	0.798432	0.742434	0.249909
740	O	0.679169	0.668393	0.052139
741	N	0.71527	0.784948	0.298452
742	H	0.732454	0.807199	0.284527
743	N	0.77354	0.704363	0.029391
744	H	0.756571	0.68068	0.03974
745	C	0.732893	0.96353	0.313179
746	C	0.726656	0.990406	0.297654
747	C	0.7465	0.525763	0.312573
748	C	0.772232	0.534765	0.013458
749	C	0.779096	0.507984	0.029059
750	H	0.708499	0.984615	0.272827
751	C	0.759634	0.973184	0.012158
752	H	0.763556	0.954245	0.026487
753	N	0.743671	0.552432	0.289187
754	N	0.803874	0.515672	0.063799
755	O	0.71254	0.54697	0.288608
756	O	0.789463	0.498007	0.098264
757	O	0.754373	0.555324	0.249778
758	O	0.828308	0.51013	0.052155
759	N	0.711767	0.929677	0.298433
760	H	0.689514	0.924608	0.284516
761	N	0.792367	0.568544	0.029316
762	H	0.816044	0.575257	0.039682
763	C	0.533191	0.768694	0.313294
764	C	0.506317	0.735565	0.297803
765	C	0.970965	0.720046	0.312747
766	C	0.961956	0.7368	0.013593
767	C	0.988744	0.770431	0.029211
768	H	0.512102	0.723199	0.27297
769	C	0.523549	0.785744	0.012339
770	H	0.542488	0.808639	0.026604
771	N	0.944307	0.690549	0.289344
772	N	0.981061	0.787538	0.063934
773	O	0.949769	0.664878	0.288778
774	O	0.998711	0.790786	0.098412
775	O	0.941414	0.698353	0.249934
776	O	0.986626	0.817519	0.052278
777	N	0.56704	0.781428	0.298524
778	H	0.572107	0.764251	0.284581
779	N	0.928177	0.723157	0.029452
780	H	0.921469	0.740124	0.039824
781	C	0.629962	0.823638	0.629183
782	N	0.656454	0.85784	0.296222
783	C	0.691027	0.866746	0.295826
784	N	0.698742	0.840259	0.296187
785	C	0.67308	0.805684	0.295811
786	N	0.638879	0.797978	0.296215
787	C	0.718063	0.902119	0.300373
788	C	0.681412	0.778645	0.300364
789	C	0.594587	0.815286	0.300442
790	O	0.654005	0.745217	0.305118
791	O	0.588555	0.842688	0.305184
792	O	0.751501	0.908148	0.305068
793	C	0.866895	0.677054	0.705728
794	N	0.842824	0.641977	0.371963
795	C	0.807498	0.629809	0.372323
796	N	0.796492	0.653881	0.371957
797	C	0.819653	0.689203	0.372379
798	N	0.85473	0.700214	0.372013
799	C	0.782801	0.59368	0.367266
800	C	0.808239	0.713917	0.367362
801	C	0.903019	0.688455	0.367366
802	O	0.83334	0.748592	0.368938
803	O	0.91258	0.663345	0.368922
804	O	0.748123	0.5841	0.368798
805	C	0.728002	0.763829	0.646547
806	C	0.76111	0.770055	0.631028
807	C	0.776651	0.750252	0.645995
808	C	0.759904	0.724502	0.34686
809	C	0.726244	0.717623	0.362429
810	H	0.773518	0.788265	0.606263
811	C	0.710909	0.737082	0.345516
812	H	0.688039	0.73315	0.359835
813	N	0.806189	0.753122	0.622663
814	N	0.709135	0.692829	0.39715
815	O	0.831836	0.784266	0.622128
816	O	0.705851	0.707223	0.431613
817	O	0.798432	0.742434	0.583244
818	O	0.679169	0.668393	0.385471
819	N	0.71527	0.784948	0.631786
820	H	0.732454	0.807199	0.617862
821	N	0.77354	0.704363	0.362724
822	H	0.756571	0.68068	0.373074
823	C	0.732893	0.96353	0.646514
824	C	0.726656	0.990406	0.630988
825	C	0.7465	0.525763	0.645905
826	C	0.772232	0.534765	0.34679
827	C	0.779096	0.507984	0.362392
828	H	0.708499	0.984615	0.60616
829	C	0.759634	0.973184	0.34549
830	H	0.763556	0.954245	0.359819
831	N	0.743671	0.552432	0.62252
832	N	0.803874	0.515672	0.397131
833	O	0.71254	0.54697	0.621942
834	O	0.789463	0.498007	0.431596
835	O	0.754373	0.555324	0.583111
836	O	0.828308	0.51013	0.385488
837	N	0.711767	0.929677	0.631766
838	H	0.689514	0.924608	0.617849
839	N	0.792367	0.568544	0.362651
840	H	0.816044	0.575257	0.373017
841	C	0.533191	0.768694	0.646627
842	C	0.506317	0.735565	0.631137
843	C	0.970965	0.720046	0.646081
844	C	0.961956	0.7368	0.346926
845	C	0.988744	0.770431	0.362545
846	H	0.512102	0.723199	0.606303
847	C	0.523549	0.785744	0.345673
848	H	0.542488	0.808639	0.359939
849	N	0.944307	0.690549	0.62268
850	N	0.981061	0.787538	0.397267
851	O	0.949769	0.664878	0.622111
852	O	0.998711	0.790786	0.431746
853	O	0.941414	0.698353	0.583267
854	O	0.986626	0.817519	0.385611
855	N	0.56704	0.781428	0.631859
856	H	0.572107	0.764251	0.617916
857	N	0.928177	0.723157	0.362784
858	H	0.921469	0.740124	0.373157
859	C	0.629962	0.823638	0.962518
860	N	0.656454	0.85784	0.629555
861	C	0.691027	0.866746	0.629159
862	N	0.698742	0.840259	0.629522
863	C	0.67308	0.805684	0.629146
864	N	0.638879	0.797978	0.629548
865	C	0.718063	0.902119	0.633707
866	C	0.681412	0.778645	0.633697
867	C	0.594587	0.815286	0.633774
868	O	0.654005	0.745217	0.638452
869	O	0.588555	0.842688	0.638518
870	O	0.751501	0.908148	0.638402
871	C	0.866895	0.677054	0.039061
872	N	0.842824	0.641977	0.705299
873	C	0.807498	0.629809	0.705654
874	N	0.796492	0.653881	0.705292
875	C	0.819653	0.689203	0.705711
876	N	0.85473	0.700214	0.705349
877	C	0.782801	0.59368	0.700601
878	C	0.808239	0.713917	0.700698
879	C	0.903019	0.688455	0.700701
880	O	0.83334	0.748592	0.70227
881	O	0.91258	0.663345	0.702253
882	O	0.748123	0.5841	0.702134
883	C	0.728002	0.763829	0.979882
884	C	0.76111	0.770055	0.96436
885	C	0.776651	0.750252	0.97933
886	C	0.759904	0.724502	0.680195
887	C	0.726244	0.717623	0.695764
888	H	0.773518	0.788265	0.939598
889	C	0.710909	0.737082	0.678848
890	H	0.688039	0.73315	0.693167
891	N	0.806189	0.753122	0.955998
892	N	0.709135	0.692829	0.730482
893	O	0.831836	0.784266	0.955463
894	O	0.705851	0.707223	0.764948
895	O	0.798432	0.742434	0.916576
896	O	0.679169	0.668393	0.718806
897	N	0.71527	0.784948	0.965121
898	H	0.732454	0.807199	0.951194
899	N	0.77354	0.704363	0.69606
900	H	0.756571	0.68068	0.706409
901	C	0.732893	0.96353	0.979846
902	C	0.726656	0.990406	0.96432
903	C	0.7465	0.525763	0.97924
904	C	0.772232	0.534765	0.680125
905	C	0.779096	0.507984	0.695727
906	H	0.708499	0.984615	0.939495
907	C	0.759634	0.973184	0.678825
908	H	0.763556	0.954245	0.693154
909	N	0.743671	0.552432	0.955852
910	N	0.803874	0.515672	0.730466
911	O	0.71254	0.54697	0.955274
912	O	0.789463	0.498007	0.764932
913	O	0.754373	0.555324	0.916446
914	O	0.828308	0.51013	0.718823
915	N	0.711767	0.929677	0.965101
916	H	0.689514	0.924608	0.951184
917	N	0.792367	0.568544	0.695983
918	H	0.816044	0.575257	0.706349
919	C	0.533191	0.768694	0.979962
920	C	0.506317	0.735565	0.964469
921	C	0.970965	0.720046	0.979413
922	C	0.961956	0.7368	0.680261
923	C	0.988744	0.770431	0.695877
924	H	0.512102	0.723199	0.939638
925	C	0.523549	0.785744	0.679005
926	H	0.542488	0.808639	0.69327
927	N	0.944307	0.690549	0.956012
928	N	0.981061	0.787538	0.730602
929	O	0.949769	0.664878	0.955446
930	O	0.998711	0.790786	0.765078
931	O	0.941414	0.698353	0.916602
932	O	0.986626	0.817519	0.718946
933	N	0.56704	0.781428	0.965191
934	H	0.572107	0.764251	0.951248
935	N	0.928177	0.723157	0.69612
936	H	0.921469	0.740124	0.706492
