data_C360H144N216O216_2018-02-15_10:32:38
#******************************************
#
# CIF file created by Zeo++
# Zeo++ is an open source package to
# analyze microporous materials
#
#*******************************************

_cell_length_a		43.6488   
_cell_length_b		43.6489   
_cell_length_c		30.0716   
_cell_angle_alpha		90   
_cell_angle_beta		90   
_cell_angle_gamma		120   

_symmetry_space_group_name_H-M		'P1'
_symmetry_Int_Tables_number		1
_symmetry_cell_setting		Monoclinic

loop_
_symmetry_equiv_pos_as_xyz
'+x,+y,+z'

loop_
_atom_site_label
_atom_site_type_symbol
_atom_site_fract_x
_atom_site_fract_y
_atom_site_fract_z
1	C	0.179654	0.310478	0.960054
2	N	0.143993	0.296563	0.959748
3	C	0.12879	0.31716	0.959618
4	N	0.150546	0.352797	0.961218
5	C	0.186345	0.368048	0.961584
6	N	0.200212	0.34626	0.96174
7	N	0.093541	0.303986	0.965401
8	H	0.085998	0.321443	0.968451
9	N	0.208262	0.403126	0.968936
10	H	0.233242	0.410645	0.972135
11	N	0.19279	0.288376	0.96586
12	H	0.175499	0.263315	0.967147
13	C	0.319029	0.18854	0.040331
14	N	0.354282	0.200151	0.039339
15	C	0.367475	0.17778	0.039804
16	N	0.343838	0.14251	0.040336
17	C	0.308277	0.129352	0.041369
18	N	0.296625	0.152981	0.040893
19	N	0.40263	0.189009	0.036761
20	H	0.408627	0.170409	0.033801
21	N	0.284277	0.094158	0.039571
22	H	0.259662	0.088154	0.036856
23	N	0.307848	0.212504	0.03746
24	H	0.326411	0.237004	0.033437
25	C	0.262711	0.230258	0.028385
26	C	0.28258	0.256727	0.329873
27	C	0.270783	0.27882	0.312655
28	C	0.238066	0.275323	0.325584
29	C	0.218843	0.25068	0.026951
30	H	0.285636	0.296103	0.288021
31	H	0.304883	0.258809	0.315871
32	C	0.231095	0.228343	0.044649
33	N	0.190633	0.250626	0.050613
34	N	0.213717	0.205574	0.081277
35	O	0.195433	0.280122	0.06343
36	O	0.214805	0.221901	0.116222
37	O	0.160095	0.230666	0.035746
38	O	0.182386	0.182295	0.072753
39	C	0.227306	0.297791	0.305209
40	C	0.273889	0.205952	0.041199
41	O	0.24927	0.173976	0.057416
42	O	0.252408	0.329017	0.287632
43	C	0.266381	0.031162	0.03068
44	C	0.238955	0.024383	0.33359
45	C	0.216698	0.49051	0.316461
46	C	0.220757	0.461461	0.328442
47	C	0.245805	0.466823	0.029084
48	H	0.199039	0.48805	0.292348
49	H	0.236545	0.044529	0.319969
50	C	0.268903	0.001572	0.0462
51	N	0.243488	0.436131	0.048733
52	N	0.293481	0.007715	0.080769
53	O	0.23023	0.429417	0.087
54	O	0.280002	0.993819	0.117455
55	O	0.271243	0.434268	0.047345
56	O	0.317787	0.001714	0.070075
57	C	0.198702	0.428247	0.307631
58	C	0.291	0.066816	0.042594
59	O	0.323547	0.074497	0.056939
60	O	0.167822	0.422184	0.288988
61	C	0.46555	0.234118	0.027067
62	C	0.472185	0.213495	0.329769
63	C	0.006005	0.225114	0.312421
64	C	0.035122	0.258155	0.324457
65	C	0.029896	0.277765	0.025332
66	H	0.008391	0.209937	0.288211
67	H	0.451959	0.190959	0.316213
68	C	0.495208	0.26618	0.042575
69	N	0.060638	0.306034	0.04506
70	N	0.489216	0.284548	0.077375
71	O	0.067417	0.29932	0.083197
72	O	0.50314	0.28478	0.113967
73	O	0.06261	0.335705	0.043914
74	O	0.495259	0.314912	0.066924
75	C	0.068332	0.269299	0.303651
76	C	0.429972	0.223107	0.039318
77	O	0.422426	0.248042	0.053777
78	O	0.074456	0.244549	0.28494
79	C	0.179654	0.310478	0.293387
80	N	0.143993	0.296563	0.293079
81	C	0.12879	0.31716	0.29295
82	N	0.150546	0.352797	0.294549
83	C	0.186345	0.368048	0.294916
84	N	0.200212	0.34626	0.295071
85	N	0.093541	0.303986	0.298733
86	H	0.085998	0.321443	0.301782
87	N	0.208262	0.403126	0.30227
88	H	0.233242	0.410645	0.305468
89	N	0.19279	0.288376	0.299193
90	H	0.175499	0.263315	0.300479
91	C	0.319029	0.18854	0.373664
92	N	0.354282	0.200151	0.372673
93	C	0.367475	0.17778	0.373139
94	N	0.343838	0.14251	0.373671
95	C	0.308277	0.129352	0.374702
96	N	0.296625	0.152981	0.374226
97	N	0.40263	0.189009	0.370093
98	H	0.408627	0.170409	0.367133
99	N	0.284277	0.094158	0.372906
100	H	0.259662	0.088154	0.370189
101	N	0.307848	0.212504	0.370795
102	H	0.326411	0.237004	0.366771
103	C	0.262711	0.230258	0.36172
104	C	0.28258	0.256727	0.663206
105	C	0.270783	0.27882	0.645987
106	C	0.238066	0.275323	0.65892
107	C	0.218843	0.25068	0.360286
108	H	0.285636	0.296103	0.621356
109	H	0.304883	0.258809	0.649206
110	C	0.231095	0.228343	0.377984
111	N	0.190633	0.250626	0.383946
112	N	0.213717	0.205574	0.41461
113	O	0.195433	0.280122	0.396763
114	O	0.214805	0.221901	0.449556
115	O	0.160095	0.230666	0.369079
116	O	0.182386	0.182295	0.406087
117	C	0.227306	0.297791	0.638542
118	C	0.273889	0.205952	0.374532
119	O	0.24927	0.173976	0.39075
120	O	0.252408	0.329017	0.620964
121	C	0.266381	0.031162	0.364014
122	C	0.238955	0.024383	0.666924
123	C	0.216698	0.49051	0.649795
124	C	0.220757	0.461461	0.661776
125	C	0.245805	0.466823	0.362418
126	H	0.199039	0.48805	0.625683
127	H	0.236545	0.044529	0.653303
128	C	0.268903	0.001572	0.379534
129	N	0.243488	0.436131	0.382068
130	N	0.293481	0.007715	0.414104
131	O	0.23023	0.429417	0.420333
132	O	0.280002	0.993819	0.450787
133	O	0.271243	0.434268	0.380678
134	O	0.317787	0.001714	0.40341
135	C	0.198702	0.428247	0.640966
136	C	0.291	0.066816	0.375929
137	O	0.323547	0.074497	0.390275
138	O	0.167822	0.422184	0.622321
139	C	0.46555	0.234118	0.360399
140	C	0.472185	0.213495	0.663103
141	C	0.006005	0.225114	0.645755
142	C	0.035122	0.258155	0.657793
143	C	0.029896	0.277765	0.358667
144	H	0.008391	0.209937	0.621546
145	H	0.451959	0.190959	0.649546
146	C	0.495208	0.26618	0.375909
147	N	0.060638	0.306034	0.378393
148	N	0.489216	0.284548	0.410709
149	O	0.067417	0.29932	0.416532
150	O	0.50314	0.28478	0.447302
151	O	0.06261	0.335705	0.377249
152	O	0.495259	0.314912	0.400258
153	C	0.068332	0.269299	0.636986
154	C	0.429972	0.223107	0.37265
155	O	0.422426	0.248042	0.387112
156	O	0.074456	0.244549	0.618274
157	C	0.179654	0.310478	0.62672
158	N	0.143993	0.296563	0.626414
159	C	0.12879	0.31716	0.626284
160	N	0.150546	0.352797	0.627884
161	C	0.186345	0.368048	0.62825
162	N	0.200212	0.34626	0.628406
163	N	0.093541	0.303986	0.632067
164	H	0.085998	0.321443	0.635117
165	N	0.208262	0.403126	0.635602
166	H	0.233242	0.410645	0.638801
167	N	0.19279	0.288376	0.632526
168	H	0.175499	0.263315	0.633813
169	C	0.319029	0.18854	0.706998
170	N	0.354282	0.200151	0.706007
171	C	0.367475	0.17778	0.706473
172	N	0.343838	0.14251	0.707005
173	C	0.308277	0.129352	0.708036
174	N	0.296625	0.152981	0.70756
175	N	0.40263	0.189009	0.703427
176	H	0.408627	0.170409	0.700467
177	N	0.284277	0.094158	0.70624
178	H	0.259662	0.088154	0.703523
179	N	0.307848	0.212504	0.704129
180	H	0.326411	0.237004	0.700105
181	C	0.262711	0.230258	0.695054
182	C	0.28258	0.256727	0.99654
183	C	0.270783	0.27882	0.979321
184	C	0.238066	0.275323	0.99225
185	C	0.218843	0.25068	0.693617
186	H	0.285636	0.296103	0.95469
187	H	0.304883	0.258809	0.982537
188	C	0.231095	0.228343	0.711318
189	N	0.190633	0.250626	0.71728
190	N	0.213717	0.205574	0.747944
191	O	0.195433	0.280122	0.730097
192	O	0.214805	0.221901	0.78289
193	O	0.160095	0.230666	0.702413
194	O	0.182386	0.182295	0.739421
195	C	0.227306	0.297791	0.971876
196	C	0.273889	0.205952	0.707866
197	O	0.24927	0.173976	0.724084
198	O	0.252408	0.329017	0.954298
199	C	0.266381	0.031162	0.697348
200	C	0.238955	0.024383	0.000257
201	C	0.216698	0.49051	0.983129
202	C	0.220757	0.461461	0.99511
203	C	0.245805	0.466823	0.695752
204	H	0.199039	0.48805	0.959017
205	H	0.236545	0.044529	0.986637
206	C	0.268903	0.001572	0.712868
207	N	0.243488	0.436131	0.715402
208	N	0.293481	0.007715	0.747435
209	O	0.23023	0.429417	0.753667
210	O	0.280002	0.993819	0.784121
211	O	0.271243	0.434268	0.714012
212	O	0.317787	0.001714	0.736744
213	C	0.198702	0.428247	0.9743
214	C	0.291	0.066816	0.709263
215	O	0.323547	0.074497	0.723609
216	O	0.167822	0.422184	0.955655
217	C	0.46555	0.234118	0.693733
218	C	0.472185	0.213495	0.996437
219	C	0.006005	0.225114	0.979089
220	C	0.035122	0.258155	0.991126
221	C	0.029896	0.277765	0.692001
222	H	0.008391	0.209937	0.95488
223	H	0.451959	0.190959	0.98288
224	C	0.495208	0.26618	0.709243
225	N	0.060638	0.306034	0.711727
226	N	0.489216	0.284548	0.744043
227	O	0.067417	0.29932	0.749866
228	O	0.50314	0.28478	0.780636
229	O	0.06261	0.335705	0.71058
230	O	0.495259	0.314912	0.733591
231	C	0.068332	0.269299	0.97032
232	C	0.429972	0.223107	0.705984
233	O	0.422426	0.248042	0.720443
234	O	0.074456	0.244549	0.951608
235	C	0.179653	0.810477	0.960054
236	N	0.143992	0.796562	0.959748
237	C	0.12879	0.81716	0.959618
238	N	0.150544	0.852796	0.961218
239	C	0.186344	0.868047	0.961584
240	N	0.200211	0.846259	0.96174
241	N	0.09354	0.803986	0.965401
242	H	0.085998	0.821443	0.968451
243	N	0.208262	0.903126	0.968936
244	H	0.233241	0.910644	0.972135
245	N	0.192789	0.788375	0.96586
246	H	0.175499	0.763315	0.967147
247	C	0.319028	0.688539	0.040331
248	N	0.354281	0.70015	0.039339
249	C	0.367474	0.67778	0.039804
250	N	0.343836	0.642509	0.040336
251	C	0.308277	0.629353	0.041369
252	N	0.296624	0.652979	0.040893
253	N	0.40263	0.68901	0.036761
254	H	0.408626	0.670407	0.033801
255	N	0.284277	0.594158	0.039571
256	H	0.259662	0.588153	0.036856
257	N	0.307848	0.712504	0.03746
258	H	0.32641	0.737003	0.033437
259	C	0.26271	0.730257	0.028385
260	C	0.28258	0.756728	0.329873
261	C	0.270782	0.77882	0.312655
262	C	0.238066	0.775322	0.325584
263	C	0.218843	0.75068	0.026951
264	H	0.285636	0.796102	0.288021
265	H	0.304883	0.75881	0.315871
266	C	0.231094	0.728342	0.044649
267	N	0.190632	0.750625	0.050613
268	N	0.213716	0.705573	0.081277
269	O	0.195432	0.780121	0.06343
270	O	0.214804	0.721901	0.116222
271	O	0.160095	0.730665	0.035746
272	O	0.182386	0.682296	0.072753
273	C	0.227306	0.79779	0.305209
274	C	0.273889	0.705951	0.041199
275	O	0.24927	0.673976	0.057416
276	O	0.252407	0.829017	0.287631
277	C	0.266381	0.531162	0.03068
278	C	0.238955	0.524382	0.33359
279	C	0.216697	0.990509	0.316461
280	C	0.220755	0.96146	0.328442
281	C	0.245803	0.966822	0.029084
282	H	0.199038	0.988049	0.292348
283	H	0.236544	0.544527	0.319969
284	C	0.268903	0.501571	0.0462
285	N	0.243488	0.93613	0.048733
286	N	0.29348	0.507713	0.080769
287	O	0.23023	0.929416	0.087
288	O	0.280003	0.49382	0.117455
289	O	0.271242	0.934268	0.047345
290	O	0.317785	0.501714	0.070075
291	C	0.1987	0.928247	0.307631
292	C	0.290999	0.566815	0.042594
293	O	0.323547	0.574497	0.056939
294	O	0.167821	0.922183	0.288988
295	C	0.465549	0.734117	0.027067
296	C	0.472185	0.713493	0.329769
297	C	0.006003	0.725112	0.312421
298	C	0.035122	0.758153	0.324457
299	C	0.029896	0.777764	0.025332
300	H	0.00839	0.709935	0.288211
301	H	0.451959	0.69096	0.316213
302	C	0.495208	0.76618	0.042575
303	N	0.060638	0.806033	0.04506
304	N	0.489215	0.784547	0.077375
305	O	0.067417	0.799319	0.083197
306	O	0.503139	0.78478	0.113967
307	O	0.06261	0.835704	0.043914
308	O	0.495259	0.814911	0.066924
309	C	0.068331	0.769299	0.303651
310	C	0.429972	0.723107	0.039318
311	O	0.422426	0.748043	0.053777
312	O	0.074456	0.744548	0.28494
313	C	0.179653	0.810477	0.293387
314	N	0.143992	0.796562	0.293079
315	C	0.12879	0.81716	0.29295
316	N	0.150544	0.852796	0.294549
317	C	0.186344	0.868047	0.294916
318	N	0.200211	0.846259	0.295071
319	N	0.09354	0.803986	0.298733
320	H	0.085998	0.821443	0.301782
321	N	0.208262	0.903126	0.30227
322	H	0.233241	0.910644	0.305468
323	N	0.192789	0.788375	0.299193
324	H	0.175499	0.763315	0.300479
325	C	0.319028	0.688539	0.373664
326	N	0.354281	0.70015	0.372673
327	C	0.367474	0.67778	0.373139
328	N	0.343836	0.642509	0.373671
329	C	0.308277	0.629353	0.374702
330	N	0.296624	0.652979	0.374226
331	N	0.40263	0.68901	0.370093
332	H	0.408626	0.670407	0.367133
333	N	0.284277	0.594158	0.372906
334	H	0.259662	0.588153	0.370189
335	N	0.307848	0.712504	0.370795
336	H	0.32641	0.737003	0.366771
337	C	0.26271	0.730257	0.36172
338	C	0.28258	0.756728	0.663206
339	C	0.270782	0.77882	0.645987
340	C	0.238066	0.775322	0.658916
341	C	0.218843	0.75068	0.360286
342	H	0.285636	0.796102	0.621356
343	H	0.304883	0.75881	0.649206
344	C	0.231094	0.728342	0.377984
345	N	0.190632	0.750625	0.383946
346	N	0.213716	0.705573	0.41461
347	O	0.195432	0.780121	0.396763
348	O	0.214804	0.721901	0.449556
349	O	0.160095	0.730665	0.369079
350	O	0.182386	0.682296	0.406087
351	C	0.227306	0.79779	0.638542
352	C	0.273889	0.705951	0.374532
353	O	0.24927	0.673976	0.39075
354	O	0.252407	0.829017	0.620964
355	C	0.266381	0.531162	0.364014
356	C	0.238955	0.524382	0.666924
357	C	0.216697	0.990509	0.649795
358	C	0.220755	0.96146	0.661776
359	C	0.245803	0.966822	0.362418
360	H	0.199038	0.988049	0.625683
361	H	0.236544	0.544527	0.653303
362	C	0.268903	0.501571	0.379534
363	N	0.243488	0.93613	0.382068
364	N	0.29348	0.507713	0.414104
365	O	0.23023	0.929416	0.420333
366	O	0.280003	0.49382	0.450787
367	O	0.271242	0.934268	0.380678
368	O	0.317785	0.501714	0.40341
369	C	0.1987	0.928247	0.640966
370	C	0.290999	0.566815	0.375929
371	O	0.323547	0.574497	0.390275
372	O	0.167821	0.922183	0.622321
373	C	0.465549	0.734117	0.360399
374	C	0.472185	0.713493	0.663103
375	C	0.006003	0.725112	0.645755
376	C	0.035122	0.758153	0.657793
377	C	0.029896	0.777764	0.358667
378	H	0.00839	0.709935	0.621546
379	H	0.451959	0.69096	0.649546
380	C	0.495208	0.76618	0.375909
381	N	0.060638	0.806033	0.378393
382	N	0.489215	0.784547	0.410709
383	O	0.067417	0.799319	0.416532
384	O	0.503139	0.78478	0.447302
385	O	0.06261	0.835704	0.377249
386	O	0.495259	0.814911	0.400258
387	C	0.068331	0.769299	0.636986
388	C	0.429972	0.723107	0.37265
389	O	0.422426	0.748043	0.387112
390	O	0.074456	0.744548	0.618274
391	C	0.179653	0.810477	0.62672
392	N	0.143992	0.796562	0.626414
393	C	0.12879	0.81716	0.626284
394	N	0.150544	0.852796	0.627884
395	C	0.186344	0.868047	0.62825
396	N	0.200211	0.846259	0.628406
397	N	0.09354	0.803986	0.632067
398	H	0.085998	0.821443	0.635117
399	N	0.208262	0.903126	0.635602
400	H	0.233241	0.910644	0.638801
401	N	0.192789	0.788375	0.632526
402	H	0.175499	0.763315	0.633813
403	C	0.319028	0.688539	0.706998
404	N	0.354281	0.70015	0.706007
405	C	0.367474	0.67778	0.706473
406	N	0.343836	0.642509	0.707005
407	C	0.308277	0.629353	0.708036
408	N	0.296624	0.652979	0.70756
409	N	0.40263	0.68901	0.703427
410	H	0.408626	0.670407	0.700467
411	N	0.284277	0.594158	0.70624
412	H	0.259662	0.588153	0.703523
413	N	0.307848	0.712504	0.704129
414	H	0.32641	0.737003	0.700105
415	C	0.26271	0.730257	0.695054
416	C	0.28258	0.756728	0.99654
417	C	0.270782	0.77882	0.979321
418	C	0.238066	0.775322	0.99225
419	C	0.218843	0.75068	0.693617
420	H	0.285636	0.796102	0.95469
421	H	0.304883	0.75881	0.982537
422	C	0.231094	0.728342	0.711318
423	N	0.190632	0.750625	0.71728
424	N	0.213716	0.705573	0.747944
425	O	0.195432	0.780121	0.730097
426	O	0.214804	0.721901	0.78289
427	O	0.160095	0.730665	0.702413
428	O	0.182386	0.682296	0.739421
429	C	0.227306	0.79779	0.971876
430	C	0.273889	0.705951	0.707866
431	O	0.24927	0.673976	0.724084
432	O	0.252407	0.829017	0.954298
433	C	0.266381	0.531162	0.697348
434	C	0.238955	0.524382	0.000257
435	C	0.216697	0.990509	0.983129
436	C	0.220755	0.96146	0.99511
437	C	0.245803	0.966822	0.695752
438	H	0.199038	0.988049	0.959017
439	H	0.236544	0.544527	0.986637
440	C	0.268903	0.501571	0.712868
441	N	0.243488	0.93613	0.715402
442	N	0.29348	0.507713	0.747435
443	O	0.23023	0.929416	0.753667
444	O	0.280003	0.49382	0.784121
445	O	0.271242	0.934268	0.714012
446	O	0.317785	0.501714	0.736744
447	C	0.1987	0.928247	0.9743
448	C	0.290999	0.566815	0.709263
449	O	0.323547	0.574497	0.723609
450	O	0.167821	0.922183	0.955655
451	C	0.465549	0.734117	0.693733
452	C	0.472185	0.713493	0.996437
453	C	0.006003	0.725112	0.979089
454	C	0.035122	0.758153	0.991126
455	C	0.029896	0.777764	0.692001
456	H	0.00839	0.709935	0.95488
457	H	0.451959	0.69096	0.98288
458	C	0.495208	0.76618	0.709243
459	N	0.060638	0.806033	0.711727
460	N	0.489215	0.784547	0.744043
461	O	0.067417	0.799319	0.749866
462	O	0.503139	0.78478	0.780636
463	O	0.06261	0.835704	0.71058
464	O	0.495259	0.814911	0.733591
465	C	0.068331	0.769299	0.97032
466	C	0.429972	0.723107	0.705984
467	O	0.422426	0.748043	0.720443
468	O	0.074456	0.744548	0.951608
469	C	0.679654	0.310478	0.960054
470	N	0.643993	0.296563	0.959748
471	C	0.62879	0.31716	0.959618
472	N	0.650547	0.352797	0.961218
473	C	0.686345	0.368048	0.961584
474	N	0.700212	0.34626	0.96174
475	N	0.59354	0.303986	0.965401
476	H	0.585998	0.321443	0.968451
477	N	0.708262	0.403126	0.968936
478	H	0.733243	0.410645	0.972135
479	N	0.692789	0.288376	0.96586
480	H	0.675501	0.263315	0.967147
481	C	0.81903	0.18854	0.040331
482	N	0.854282	0.200151	0.039339
483	C	0.867475	0.17778	0.039804
484	N	0.843838	0.14251	0.040336
485	C	0.808277	0.129352	0.041369
486	N	0.796625	0.152981	0.040893
487	N	0.90263	0.189009	0.036761
488	H	0.908629	0.170409	0.033801
489	N	0.784277	0.094158	0.039571
490	H	0.759664	0.088154	0.036856
491	N	0.807847	0.212504	0.03746
492	H	0.826411	0.237004	0.033437
493	C	0.762712	0.230258	0.028385
494	C	0.782581	0.256727	0.329873
495	C	0.770784	0.27882	0.312655
496	C	0.738067	0.275323	0.325584
497	C	0.718843	0.25068	0.026951
498	H	0.785636	0.296103	0.288021
499	H	0.804885	0.258809	0.315871
500	C	0.731096	0.228343	0.044649
501	N	0.690634	0.250626	0.050613
502	N	0.713718	0.205574	0.081277
503	O	0.695432	0.280122	0.06343
504	O	0.714805	0.221901	0.116222
505	O	0.660097	0.230666	0.035746
506	O	0.682387	0.182295	0.072753
507	C	0.727308	0.297791	0.305209
508	C	0.77389	0.205952	0.041199
509	O	0.74927	0.173976	0.057416
510	O	0.752408	0.329017	0.287632
511	C	0.766381	0.031162	0.03068
512	C	0.738956	0.024383	0.33359
513	C	0.716698	0.49051	0.316461
514	C	0.720758	0.461461	0.328442
515	C	0.745806	0.466823	0.029084
516	H	0.699041	0.48805	0.292348
517	H	0.736545	0.044529	0.319969
518	C	0.768903	0.001572	0.0462
519	N	0.743489	0.436131	0.048733
520	N	0.793483	0.007715	0.080769
521	O	0.73023	0.429417	0.087
522	O	0.780003	0.993819	0.117455
523	O	0.771243	0.434268	0.047345
524	O	0.817787	0.001714	0.070075
525	C	0.698703	0.428247	0.307631
526	C	0.791	0.066816	0.042594
527	O	0.823547	0.074497	0.056939
528	O	0.667822	0.422184	0.288988
529	C	0.96555	0.234118	0.027067
530	C	0.972187	0.213495	0.329769
531	C	0.506006	0.225114	0.312421
532	C	0.535123	0.258155	0.324457
533	C	0.529897	0.277765	0.025332
534	H	0.508391	0.209937	0.288211
535	H	0.951959	0.190959	0.316213
536	C	0.995208	0.26618	0.042575
537	N	0.560639	0.306034	0.04506
538	N	0.989216	0.284548	0.077375
539	O	0.567417	0.29932	0.083197
540	O	0.003139	0.28478	0.113967
541	O	0.56261	0.335705	0.043914
542	O	0.995261	0.314912	0.066924
543	C	0.568332	0.269299	0.303651
544	C	0.929972	0.223107	0.039318
545	O	0.922426	0.248042	0.053777
546	O	0.574457	0.244549	0.28494
547	C	0.679654	0.310478	0.293387
548	N	0.643993	0.296563	0.293079
549	C	0.62879	0.31716	0.29295
550	N	0.650547	0.352797	0.294549
551	C	0.686345	0.368048	0.294916
552	N	0.700212	0.34626	0.295071
553	N	0.59354	0.303986	0.298733
554	H	0.585998	0.321443	0.301782
555	N	0.708262	0.403126	0.30227
556	H	0.733243	0.410645	0.305468
557	N	0.692789	0.288376	0.299193
558	H	0.675501	0.263315	0.300479
559	C	0.81903	0.18854	0.373664
560	N	0.854282	0.200151	0.372673
561	C	0.867475	0.17778	0.373139
562	N	0.843838	0.14251	0.373671
563	C	0.808277	0.129352	0.374702
564	N	0.796625	0.152981	0.374226
565	N	0.90263	0.189009	0.370093
566	H	0.908629	0.170409	0.367133
567	N	0.784277	0.094158	0.372906
568	H	0.759664	0.088154	0.370189
569	N	0.807847	0.212504	0.370795
570	H	0.826411	0.237004	0.366771
571	C	0.762712	0.230258	0.36172
572	C	0.782581	0.256727	0.663206
573	C	0.770784	0.27882	0.645987
574	C	0.738067	0.275323	0.65892
575	C	0.718843	0.25068	0.360286
576	H	0.785636	0.296103	0.621356
577	H	0.804885	0.258809	0.649206
578	C	0.731096	0.228343	0.377984
579	N	0.690634	0.250626	0.383946
580	N	0.713718	0.205574	0.41461
581	O	0.695432	0.280122	0.396763
582	O	0.714805	0.221901	0.449556
583	O	0.660097	0.230666	0.369079
584	O	0.682387	0.182295	0.406087
585	C	0.727308	0.297791	0.638542
586	C	0.77389	0.205952	0.374532
587	O	0.74927	0.173976	0.39075
588	O	0.752408	0.329017	0.620964
589	C	0.766381	0.031162	0.364014
590	C	0.738956	0.024383	0.666924
591	C	0.716698	0.49051	0.649795
592	C	0.720758	0.461461	0.661776
593	C	0.745806	0.466823	0.362418
594	H	0.699041	0.48805	0.625683
595	H	0.736545	0.044529	0.653303
596	C	0.768903	0.001572	0.379534
597	N	0.743489	0.436131	0.382068
598	N	0.793483	0.007715	0.414104
599	O	0.73023	0.429417	0.420333
600	O	0.780003	0.993819	0.450787
601	O	0.771243	0.434268	0.380678
602	O	0.817787	0.001714	0.40341
603	C	0.698703	0.428247	0.640966
604	C	0.791	0.066816	0.375929
605	O	0.823547	0.074497	0.390275
606	O	0.667822	0.422184	0.622321
607	C	0.96555	0.234118	0.360399
608	C	0.972187	0.213495	0.663103
609	C	0.506006	0.225114	0.645755
610	C	0.535123	0.258155	0.657793
611	C	0.529897	0.277765	0.358667
612	H	0.508391	0.209937	0.621546
613	H	0.951959	0.190959	0.649546
614	C	0.995208	0.26618	0.375909
615	N	0.560639	0.306034	0.378393
616	N	0.989216	0.284548	0.410709
617	O	0.567417	0.29932	0.416532
618	O	0.003139	0.28478	0.447302
619	O	0.56261	0.335705	0.377249
620	O	0.995261	0.314912	0.400258
621	C	0.568332	0.269299	0.636986
622	C	0.929972	0.223107	0.37265
623	O	0.922426	0.248042	0.387112
624	O	0.574457	0.244549	0.618274
625	C	0.679654	0.310478	0.62672
626	N	0.643993	0.296563	0.626414
627	C	0.62879	0.31716	0.626284
628	N	0.650547	0.352797	0.627884
629	C	0.686345	0.368048	0.62825
630	N	0.700212	0.34626	0.628406
631	N	0.59354	0.303986	0.632067
632	H	0.585998	0.321443	0.635117
633	N	0.708262	0.403126	0.635602
634	H	0.733243	0.410645	0.638801
635	N	0.692789	0.288376	0.632526
636	H	0.675501	0.263315	0.633813
637	C	0.81903	0.18854	0.706998
638	N	0.854282	0.200151	0.706007
639	C	0.867475	0.17778	0.706473
640	N	0.843838	0.14251	0.707005
641	C	0.808277	0.129352	0.708036
642	N	0.796625	0.152981	0.70756
643	N	0.90263	0.189009	0.703427
644	H	0.908629	0.170409	0.700467
645	N	0.784277	0.094158	0.70624
646	H	0.759664	0.088154	0.703523
647	N	0.807847	0.212504	0.704129
648	H	0.826411	0.237004	0.700105
649	C	0.762712	0.230258	0.695054
650	C	0.782581	0.256727	0.99654
651	C	0.770784	0.27882	0.979321
652	C	0.738067	0.275323	0.99225
653	C	0.718843	0.25068	0.693617
654	H	0.785636	0.296103	0.95469
655	H	0.804885	0.258809	0.982537
656	C	0.731096	0.228343	0.711318
657	N	0.690634	0.250626	0.71728
658	N	0.713718	0.205574	0.747944
659	O	0.695432	0.280122	0.730097
660	O	0.714805	0.221901	0.78289
661	O	0.660097	0.230666	0.702413
662	O	0.682387	0.182295	0.739421
663	C	0.727308	0.297791	0.971876
664	C	0.77389	0.205952	0.707866
665	O	0.74927	0.173976	0.724084
666	O	0.752408	0.329017	0.954298
667	C	0.766381	0.031162	0.697348
668	C	0.738956	0.024383	0.000257
669	C	0.716698	0.49051	0.983129
670	C	0.720758	0.461461	0.99511
671	C	0.745806	0.466823	0.695752
672	H	0.699041	0.48805	0.959017
673	H	0.736545	0.044529	0.986637
674	C	0.768903	0.001572	0.712868
675	N	0.743489	0.436131	0.715402
676	N	0.793483	0.007715	0.747435
677	O	0.73023	0.429417	0.753667
678	O	0.780003	0.993819	0.784121
679	O	0.771243	0.434268	0.714012
680	O	0.817787	0.001714	0.736744
681	C	0.698703	0.428247	0.9743
682	C	0.791	0.066816	0.709263
683	O	0.823547	0.074497	0.723609
684	O	0.667822	0.422184	0.955655
685	C	0.96555	0.234118	0.693733
686	C	0.972187	0.213495	0.996437
687	C	0.506006	0.225114	0.979089
688	C	0.535123	0.258155	0.991126
689	C	0.529897	0.277765	0.692001
690	H	0.508391	0.209937	0.95488
691	H	0.951959	0.190959	0.98288
692	C	0.995208	0.26618	0.709243
693	N	0.560639	0.306034	0.711727
694	N	0.989216	0.284548	0.744043
695	O	0.567417	0.29932	0.749866
696	O	0.003139	0.28478	0.780636
697	O	0.56261	0.335705	0.71058
698	O	0.995261	0.314912	0.733591
699	C	0.568332	0.269299	0.97032
700	C	0.929972	0.223107	0.705984
701	O	0.922426	0.248042	0.720443
702	O	0.574457	0.244549	0.951608
703	C	0.679654	0.810477	0.960054
704	N	0.643992	0.796562	0.959748
705	C	0.628791	0.81716	0.959618
706	N	0.650546	0.852796	0.961218
707	C	0.686344	0.868047	0.961584
708	N	0.700212	0.846259	0.96174
709	N	0.593541	0.803986	0.965401
710	H	0.585998	0.821443	0.968451
711	N	0.708262	0.903126	0.968936
712	H	0.733243	0.910644	0.972135
713	N	0.692789	0.788375	0.96586
714	H	0.675498	0.763315	0.967147
715	C	0.819029	0.688539	0.040331
716	N	0.854281	0.70015	0.039339
717	C	0.867475	0.67778	0.039804
718	N	0.843837	0.642509	0.040336
719	C	0.808278	0.629353	0.041369
720	N	0.796624	0.652979	0.040893
721	N	0.90263	0.68901	0.036761
722	H	0.908626	0.670407	0.033801
723	N	0.784277	0.594158	0.039571
724	H	0.759663	0.588153	0.036856
725	N	0.807847	0.712504	0.03746
726	H	0.826411	0.737003	0.033437
727	C	0.762711	0.730257	0.028385
728	C	0.782581	0.756728	0.329873
729	C	0.770783	0.77882	0.312655
730	C	0.738067	0.775322	0.325584
731	C	0.718843	0.75068	0.026951
732	H	0.785636	0.796102	0.288021
733	H	0.804883	0.75881	0.315871
734	C	0.731095	0.728342	0.044649
735	N	0.690634	0.750625	0.050613
736	N	0.713717	0.705573	0.081277
737	O	0.695432	0.780121	0.06343
738	O	0.714804	0.721901	0.116222
739	O	0.660094	0.730665	0.035746
740	O	0.682388	0.682296	0.072753
741	C	0.727305	0.79779	0.305209
742	C	0.77389	0.705951	0.041199
743	O	0.74927	0.673976	0.057416
744	O	0.752408	0.829017	0.287631
745	C	0.766381	0.531162	0.03068
746	C	0.738956	0.524382	0.33359
747	C	0.716698	0.990509	0.316461
748	C	0.720757	0.96146	0.328442
749	C	0.745806	0.966822	0.029084
750	H	0.699039	0.988049	0.292348
751	H	0.736544	0.544527	0.319969
752	C	0.768903	0.501571	0.0462
753	N	0.743488	0.93613	0.048733
754	N	0.793482	0.507713	0.080769
755	O	0.73023	0.929416	0.087
756	O	0.780003	0.49382	0.117455
757	O	0.771243	0.934268	0.047345
758	O	0.817786	0.501714	0.070075
759	C	0.698703	0.928247	0.307631
760	C	0.791	0.566815	0.042594
761	O	0.823547	0.574497	0.056939
762	O	0.667822	0.922183	0.288988
763	C	0.965549	0.734117	0.027067
764	C	0.972186	0.713493	0.329769
765	C	0.506005	0.725112	0.312421
766	C	0.535122	0.758153	0.324457
767	C	0.529896	0.777764	0.025332
768	H	0.508391	0.709935	0.288211
769	H	0.951959	0.69096	0.316213
770	C	0.995207	0.76618	0.042575
771	N	0.560638	0.806033	0.04506
772	N	0.989215	0.784547	0.077375
773	O	0.567417	0.799319	0.083197
774	O	0.003137	0.78478	0.113967
775	O	0.56261	0.835704	0.043914
776	O	0.995261	0.814911	0.066924
777	C	0.568332	0.769299	0.303651
778	C	0.929972	0.723107	0.039318
779	O	0.922426	0.748043	0.053777
780	O	0.574456	0.744548	0.28494
781	C	0.679654	0.810477	0.293387
782	N	0.643992	0.796562	0.293079
783	C	0.628791	0.81716	0.29295
784	N	0.650546	0.852796	0.294549
785	C	0.686344	0.868047	0.294916
786	N	0.700212	0.846259	0.295071
787	N	0.593541	0.803986	0.298733
788	H	0.585998	0.821443	0.301782
789	N	0.708262	0.903126	0.30227
790	H	0.733243	0.910644	0.305468
791	N	0.692789	0.788375	0.299193
792	H	0.675498	0.763315	0.300479
793	C	0.819029	0.688539	0.373664
794	N	0.854281	0.70015	0.372673
795	C	0.867475	0.67778	0.373139
796	N	0.843837	0.642509	0.373671
797	C	0.808278	0.629353	0.374702
798	N	0.796624	0.652979	0.374226
799	N	0.90263	0.68901	0.370093
800	H	0.908626	0.670407	0.367133
801	N	0.784277	0.594158	0.372906
802	H	0.759663	0.588153	0.370189
803	N	0.807847	0.712504	0.370795
804	H	0.826411	0.737003	0.366771
805	C	0.762711	0.730257	0.36172
806	C	0.782581	0.756728	0.663206
807	C	0.770783	0.77882	0.645987
808	C	0.738067	0.775322	0.658916
809	C	0.718843	0.75068	0.360286
810	H	0.785636	0.796102	0.621356
811	H	0.804883	0.75881	0.649206
812	C	0.731095	0.728342	0.377984
813	N	0.690634	0.750625	0.383946
814	N	0.713717	0.705573	0.41461
815	O	0.695432	0.780121	0.396763
816	O	0.714804	0.721901	0.449556
817	O	0.660094	0.730665	0.369079
818	O	0.682388	0.682296	0.406087
819	C	0.727305	0.79779	0.638542
820	C	0.77389	0.705951	0.374532
821	O	0.74927	0.673976	0.39075
822	O	0.752408	0.829017	0.620964
823	C	0.766381	0.531162	0.364014
824	C	0.738956	0.524382	0.666924
825	C	0.716698	0.990509	0.649795
826	C	0.720757	0.96146	0.661776
827	C	0.745806	0.966822	0.362418
828	H	0.699039	0.988049	0.625683
829	H	0.736544	0.544527	0.653303
830	C	0.768903	0.501571	0.379534
831	N	0.743488	0.93613	0.382068
832	N	0.793482	0.507713	0.414104
833	O	0.73023	0.929416	0.420333
834	O	0.780003	0.49382	0.450787
835	O	0.771243	0.934268	0.380678
836	O	0.817786	0.501714	0.40341
837	C	0.698703	0.928247	0.640966
838	C	0.791	0.566815	0.375929
839	O	0.823547	0.574497	0.390275
840	O	0.667822	0.922183	0.622321
841	C	0.965549	0.734117	0.360399
842	C	0.972186	0.713493	0.663103
843	C	0.506005	0.725112	0.645755
844	C	0.535122	0.758153	0.657793
845	C	0.529896	0.777764	0.358667
846	H	0.508391	0.709935	0.621546
847	H	0.951959	0.69096	0.649546
848	C	0.995207	0.76618	0.375909
849	N	0.560638	0.806033	0.378393
850	N	0.989215	0.784547	0.410709
851	O	0.567417	0.799319	0.416532
852	O	0.003137	0.78478	0.447302
853	O	0.56261	0.835704	0.377249
854	O	0.995261	0.814911	0.400258
855	C	0.568332	0.769299	0.636986
856	C	0.929972	0.723107	0.37265
857	O	0.922426	0.748043	0.387112
858	O	0.574456	0.744548	0.618274
859	C	0.679654	0.810477	0.62672
860	N	0.643992	0.796562	0.626414
861	C	0.628791	0.81716	0.626284
862	N	0.650546	0.852796	0.627884
863	C	0.686344	0.868047	0.62825
864	N	0.700212	0.846259	0.628406
865	N	0.593541	0.803986	0.632067
866	H	0.585998	0.821443	0.635117
867	N	0.708262	0.903126	0.635602
868	H	0.733243	0.910644	0.638801
869	N	0.692789	0.788375	0.632526
870	H	0.675498	0.763315	0.633813
871	C	0.819029	0.688539	0.706998
872	N	0.854281	0.70015	0.706007
873	C	0.867475	0.67778	0.706473
874	N	0.843837	0.642509	0.707005
875	C	0.808278	0.629353	0.708036
876	N	0.796624	0.652979	0.70756
877	N	0.90263	0.68901	0.703427
878	H	0.908626	0.670407	0.700467
879	N	0.784277	0.594158	0.70624
880	H	0.759663	0.588153	0.703523
881	N	0.807847	0.712504	0.704129
882	H	0.826411	0.737003	0.700105
883	C	0.762711	0.730257	0.695054
884	C	0.782581	0.756728	0.99654
885	C	0.770783	0.77882	0.979321
886	C	0.738067	0.775322	0.99225
887	C	0.718843	0.75068	0.693617
888	H	0.785636	0.796102	0.95469
889	H	0.804883	0.75881	0.982537
890	C	0.731095	0.728342	0.711318
891	N	0.690634	0.750625	0.71728
892	N	0.713717	0.705573	0.747944
893	O	0.695432	0.780121	0.730097
894	O	0.714804	0.721901	0.78289
895	O	0.660094	0.730665	0.702413
896	O	0.682388	0.682296	0.739421
897	C	0.727305	0.79779	0.971876
898	C	0.77389	0.705951	0.707866
899	O	0.74927	0.673976	0.724084
900	O	0.752408	0.829017	0.954298
901	C	0.766381	0.531162	0.697348
902	C	0.738956	0.524382	0.000257
903	C	0.716698	0.990509	0.983129
904	C	0.720757	0.96146	0.99511
905	C	0.745806	0.966822	0.695752
906	H	0.699039	0.988049	0.959017
907	H	0.736544	0.544527	0.986637
908	C	0.768903	0.501571	0.712868
909	N	0.743488	0.93613	0.715402
910	N	0.793482	0.507713	0.747435
911	O	0.73023	0.929416	0.753667
912	O	0.780003	0.49382	0.784121
913	O	0.771243	0.934268	0.714012
914	O	0.817786	0.501714	0.736744
915	C	0.698703	0.928247	0.9743
916	C	0.791	0.566815	0.709263
917	O	0.823547	0.574497	0.723609
918	O	0.667822	0.922183	0.955655
919	C	0.965549	0.734117	0.693733
920	C	0.972186	0.713493	0.996437
921	C	0.506005	0.725112	0.979089
922	C	0.535122	0.758153	0.991126
923	C	0.529896	0.777764	0.692001
924	H	0.508391	0.709935	0.95488
925	H	0.951959	0.69096	0.98288
926	C	0.995207	0.76618	0.709243
927	N	0.560638	0.806033	0.711727
928	N	0.989215	0.784547	0.744043
929	O	0.567417	0.799319	0.749866
930	O	0.003137	0.78478	0.780636
931	O	0.56261	0.835704	0.71058
932	O	0.995261	0.814911	0.733591
933	C	0.568332	0.769299	0.97032
934	C	0.929972	0.723107	0.705984
935	O	0.922426	0.748043	0.720443
936	O	0.574456	0.744548	0.951608
