data_C864H432N216_2018-02-15_10:38:32
#******************************************
#
# CIF file created by Zeo++
# Zeo++ is an open source package to
# analyze microporous materials
#
#*******************************************

_cell_length_a		42.539   
_cell_length_b		55.1504   
_cell_length_c		29.8798   
_cell_angle_alpha		90   
_cell_angle_beta		90   
_cell_angle_gamma		90   

_symmetry_space_group_name_H-M		'P1'
_symmetry_Int_Tables_number		1
_symmetry_cell_setting		Orthorhombic

loop_
_symmetry_equiv_pos_as_xyz
'+x,+y,+z'

loop_
_atom_site_label
_atom_site_type_symbol
_atom_site_fract_x
_atom_site_fract_y
_atom_site_fract_z
1	C	0.185421	0.17102	0.989736
2	N	0.164112	0.153139	0.99901
3	C	0.133493	0.15842	0.009479
4	N	0.125423	0.182385	0.011623
5	C	0.145573	0.200902	0.003776
6	N	0.175015	0.194273	0.992651
7	C	0.318578	0.833124	0.987125
8	N	0.339991	0.850968	0.996198
9	C	0.370683	0.845634	0.006131
10	N	0.378709	0.821654	0.007977
11	C	0.35849	0.80317	0.000258
12	N	0.328973	0.809857	0.989669
13	C	0.318169	0.170789	0.98237
14	N	0.339752	0.153006	0.991178
15	C	0.370742	0.158382	0.999036
16	N	0.378923	0.182347	0.998996
17	C	0.358642	0.200768	0.991218
18	N	0.328813	0.194022	0.982892
19	C	0.185823	0.833206	0.984016
20	N	0.164395	0.850986	0.993508
21	C	0.133557	0.845619	0.002459
22	N	0.125361	0.821659	0.002737
23	C	0.145517	0.803237	0.994317
24	N	0.175209	0.809964	0.98494
25	C	0.434798	0.673646	0.997219
26	N	0.41342	0.655298	0.002106
27	C	0.382012	0.66001	0.007777
28	N	0.373029	0.683836	0.009048
29	C	0.393105	0.70273	0.005334
30	N	0.423371	0.696612	0.999237
31	C	0.069245	0.330408	5e-05
32	N	0.090562	0.348736	0.005675
33	C	0.121895	0.344023	0.012255
34	N	0.130889	0.320203	0.01355
35	C	0.110866	0.301318	0.009067
36	N	0.080681	0.307445	0.002187
37	C	0.068738	0.673673	0.993046
38	N	0.090259	0.655388	0.997661
39	C	0.121797	0.660179	0.001506
40	N	0.130734	0.684015	0.001376
41	C	0.110577	0.702851	0.997808
42	N	0.080195	0.696652	0.993548
43	C	0.435285	0.33046	0.991195
44	N	0.413601	0.348721	0.994609
45	C	0.381981	0.343887	0.996817
46	N	0.373144	0.320031	0.99652
47	C	0.393413	0.301211	0.99419
48	N	0.423853	0.307474	0.991376
49	C	0.030606	0.091637	0.017063
50	N	0.02988	0.067077	0.012274
51	C	0.002278	0.054276	0.008901
52	N	0.474621	0.067154	0.009295
53	C	0.473798	0.091755	0.013686
54	N	0.002183	0.10252	0.01755
55	C	0.473765	0.91232	0.015978
56	N	0.474574	0.936891	0.011143
57	C	0.502254	0.949684	0.009099
58	N	0.029873	0.936812	0.010961
59	C	0.030621	0.912242	0.015648
60	N	0.502176	0.901456	0.018068
61	C	0.280451	0.591543	0.009458
62	N	0.279623	0.566888	0.006337
63	C	0.251811	0.55419	0.00468
64	N	0.22412	0.567068	0.005398
65	C	0.223453	0.591735	0.00787
66	N	0.251992	0.602279	0.00993
67	C	0.223318	0.412367	0.01173
68	N	0.224046	0.437007	0.008818
69	C	0.251687	0.449752	0.004764
70	N	0.279339	0.436857	0.002747
71	C	0.280065	0.412157	0.00464
72	N	0.251682	0.401575	0.009301
73	C	0.268478	0.146564	0.988213
74	C	0.23513	0.14661	0.990024
75	C	0.217776	0.167885	0.979963
76	C	0.234782	0.187718	0.295394
77	C	0.2675	0.1876	0.293287
78	C	0.285364	0.167735	0.976017
79	H	0.223723	0.203235	0.285096
80	H	0.223931	0.131873	0.00335
81	H	0.280284	0.13179	0.000285
82	H	0.278001	0.203083	0.281726
83	C	0.235518	0.857499	0.988243
84	C	0.268885	0.857508	0.988933
85	C	0.286104	0.83627	0.978176
86	C	0.268866	0.816473	0.293908
87	C	0.236117	0.816521	0.29301
88	C	0.218491	0.836323	0.976496
89	H	0.279788	0.800974	0.28323
90	H	0.280258	0.872221	0.002049
91	H	0.223899	0.872248	0.000783
92	H	0.225452	0.801037	0.281751
93	C	0.018502	0.649753	0.997259
94	C	0.485117	0.649729	0.998213
95	C	0.467763	0.671381	0.991376
96	C	0.485157	0.692287	0.312616
97	C	0.017827	0.692282	0.311514
98	C	0.035619	0.671395	0.98923
99	H	0.474447	0.708373	0.304906
100	H	0.473683	0.634126	0.007001
101	H	0.030198	0.634146	0.005299
102	H	0.028248	0.708378	0.303117
103	C	0.485517	0.354342	0.997266
104	C	0.018885	0.354339	0.999388
105	C	0.036354	0.332674	0.99327
106	C	0.019117	0.311751	0.314168
107	C	0.486473	0.311779	0.31194
108	C	0.468492	0.332703	0.988789
109	H	0.029917	0.295632	0.306957
110	H	0.030182	0.369981	0.008301
111	H	0.473697	0.369994	0.004611
112	H	0.476203	0.295663	0.303303
113	C	0.114103	0.115469	0.342556
114	C	0.088648	0.098875	0.344628
115	C	0.057506	0.106892	0.35276
116	C	0.053644	0.131973	0.028537
117	C	0.078754	0.148302	0.026887
118	C	0.109581	0.14074	0.349045
119	H	0.032101	0.139135	0.035982
120	H	0.092828	0.081011	0.337613
121	H	0.135858	0.108981	0.334259
122	H	0.07361	0.166138	0.032847
123	C	0.390263	0.888556	0.339574
124	C	0.415759	0.905104	0.342084
125	C	0.446841	0.897031	0.350514
126	C	0.450612	0.871871	0.025655
127	C	0.425489	0.855579	0.023393
128	C	0.39468	0.863249	0.345705
129	H	0.472098	0.864604	0.033058
130	H	0.411622	0.923028	0.335555
131	H	0.368525	0.895131	0.331397
132	H	0.430588	0.837706	0.029052
133	C	0.390343	0.115459	0.001503
134	C	0.415842	0.098958	0.004993
135	C	0.446943	0.107137	0.013005
136	C	0.450793	0.132482	0.352559
137	C	0.425731	0.148746	0.348948
138	C	0.394821	0.140874	0.005703
139	H	0.472305	0.139922	0.359183
140	H	0.411624	0.080892	0.000124
141	H	0.368537	0.108735	0.994167
142	H	0.430908	0.166718	0.353219
143	C	0.114069	0.888542	0.0046
144	C	0.088594	0.905068	0.007881
145	C	0.05752	0.896923	0.016159
146	C	0.053718	0.87167	0.356893
147	C	0.078794	0.855385	0.353674
148	C	0.109596	0.863168	0.009531
149	H	0.032233	0.864328	0.364045
150	H	0.09276	0.923069	0.002174
151	H	0.135812	0.895196	0.996687
152	H	0.073676	0.837451	0.358577
153	C	0.363718	0.616645	0.339035
154	C	0.338602	0.599662	0.339477
155	C	0.306975	0.607245	0.344771
156	C	0.302188	0.632455	0.01839
157	C	0.32682	0.649151	0.01804
158	C	0.358313	0.641923	0.344082
159	H	0.280347	0.639508	0.023804
160	H	0.343534	0.581731	0.33433
161	H	0.386022	0.610389	0.333623
162	H	0.320875	0.666939	0.022834
163	C	0.140106	0.387357	0.343647
164	C	0.165187	0.404353	0.343818
165	C	0.196825	0.396764	0.348868
166	C	0.201668	0.371664	0.023526
167	C	0.177014	0.354964	0.023687
168	C	0.145552	0.362116	0.349089
169	H	0.223596	0.364737	0.029179
170	H	0.160268	0.422218	0.337867
171	H	0.117822	0.39356	0.33782
172	H	0.18293	0.337204	0.028928
173	C	0.140178	0.616812	0.002511
174	C	0.165309	0.59986	0.004001
175	C	0.197004	0.607554	0.007802
176	C	0.201927	0.632968	0.344273
177	C	0.177295	0.649637	0.342717
178	C	0.145634	0.642203	0.004639
179	H	0.223879	0.640219	0.347365
180	H	0.160271	0.58178	0.00155
181	H	0.117762	0.6104	0.998986
182	H	0.183368	0.667548	0.344869
183	C	0.363389	0.387203	0.99833
184	C	0.338202	0.404106	0.999896
185	C	0.306474	0.396342	0.002386
186	C	0.301493	0.370879	0.335869
187	C	0.326188	0.354264	0.334127
188	C	0.357968	0.361787	0.998782
189	H	0.279438	0.363566	0.336913
190	H	0.343282	0.422233	0.999615
191	H	0.385881	0.393693	0.99672
192	H	0.32008	0.336319	0.334361
193	C	0.097032	0.257746	0.013773
194	C	0.105476	0.233083	0.01247
195	C	0.137103	0.225921	0.006382
196	C	0.159948	0.244577	0.336053
197	C	0.15155	0.269268	0.337931
198	C	0.119827	0.27639	0.009609
199	H	0.1832	0.240441	0.331809
200	H	0.088027	0.220401	0.015241
201	H	0.073755	0.261873	0.01781
202	H	0.16887	0.282004	0.334401
203	C	0.406873	0.746278	0.010948
204	C	0.398455	0.770945	0.009641
205	C	0.366922	0.778136	0.002736
206	C	0.344126	0.759496	0.331594
207	C	0.352493	0.734798	0.333415
208	C	0.384139	0.727654	0.005912
209	H	0.320938	0.763647	0.326717
210	H	0.415863	0.783612	0.013096
211	H	0.430085	0.742133	0.015626
212	H	0.335222	0.722077	0.329265
213	C	0.352867	0.269112	0.321828
214	C	0.344441	0.244421	0.320671
215	C	0.367209	0.225792	0.325538
216	C	0.398808	0.232985	0.998457
217	C	0.407264	0.257647	0.999224
218	C	0.384527	0.276267	0.327467
219	H	0.416187	0.220325	0.002246
220	H	0.321211	0.24027	0.316261
221	H	0.335565	0.28182	0.317821
222	H	0.430487	0.261775	0.003801
223	C	0.151166	0.734882	0.325005
224	C	0.159622	0.759565	0.32366
225	C	0.136924	0.778218	0.328866
226	C	0.105362	0.771061	0.002287
227	C	0.096861	0.746409	0.003168
228	C	0.119534	0.727772	0.331116
229	H	0.08803	0.783739	0.006312
230	H	0.182823	0.763694	0.318866
231	H	0.168401	0.722146	0.320703
232	H	0.073668	0.742291	0.008105
233	C	0.974209	0.989185	0.335073
234	C	0.974218	0.01477	0.335002
235	C	0.002379	0.028261	0.339879
236	C	0.030588	0.014754	0.010714
237	C	0.030587	0.989185	0.01071
238	C	0.002368	0.975691	0.339952
239	H	0.051679	0.023396	0.014717
240	H	0.953075	0.023448	0.331936
241	H	0.953066	0.980507	0.332014
242	H	0.051665	0.980534	0.014792
243	C	0.278824	0.489179	0.325343
244	C	0.278864	0.514758	0.325345
245	C	0.251647	0.528218	0.336776
246	C	0.224355	0.514802	0.014663
247	C	0.22435	0.489244	0.0148
248	C	0.251597	0.475752	0.336917
249	H	0.204135	0.523514	0.023905
250	H	0.299198	0.523473	0.316644
251	H	0.299154	0.480452	0.316691
252	H	0.204082	0.480599	0.024025
253	C	0.185421	0.17102	0.32307
254	N	0.164112	0.153139	0.332343
255	C	0.133493	0.15842	0.342814
256	N	0.125423	0.182385	0.344956
257	C	0.145573	0.200902	0.337107
258	N	0.175015	0.194273	0.325984
259	C	0.318578	0.833124	0.32046
260	N	0.339991	0.850968	0.329533
261	C	0.370683	0.845634	0.339464
262	N	0.378709	0.821654	0.341311
263	C	0.35849	0.80317	0.333591
264	N	0.328973	0.809857	0.323003
265	C	0.318169	0.170789	0.315701
266	N	0.339752	0.153006	0.324513
267	C	0.370742	0.158382	0.332369
268	N	0.378923	0.182347	0.33233
269	C	0.358642	0.200768	0.324552
270	N	0.328813	0.194022	0.316226
271	C	0.185823	0.833206	0.317349
272	N	0.164395	0.850986	0.326841
273	C	0.133557	0.845619	0.335792
274	N	0.125361	0.821659	0.33607
275	C	0.145517	0.803237	0.327651
276	N	0.175209	0.809964	0.318272
277	C	0.434798	0.673646	0.330552
278	N	0.41342	0.655298	0.335437
279	C	0.382012	0.66001	0.34111
280	N	0.373029	0.683836	0.342382
281	C	0.393105	0.70273	0.338667
282	N	0.423371	0.696612	0.33257
283	C	0.069245	0.330408	0.333386
284	N	0.090562	0.348736	0.339008
285	C	0.121895	0.344023	0.345588
286	N	0.130889	0.320203	0.346883
287	C	0.110866	0.301318	0.342399
288	N	0.080681	0.307445	0.335521
289	C	0.068738	0.673673	0.326381
290	N	0.090259	0.655388	0.330995
291	C	0.121797	0.660179	0.334838
292	N	0.130734	0.684015	0.334711
293	C	0.110577	0.702851	0.33114
294	N	0.080195	0.696652	0.326883
295	C	0.435285	0.33046	0.324528
296	N	0.413601	0.348721	0.327942
297	C	0.381981	0.343887	0.330151
298	N	0.373144	0.320031	0.329853
299	C	0.393413	0.301211	0.327524
300	N	0.423853	0.307474	0.324709
301	C	0.030606	0.091637	0.350397
302	N	0.02988	0.067077	0.345608
303	C	0.002278	0.054276	0.342235
304	N	0.474621	0.067154	0.34263
305	C	0.473798	0.091755	0.34702
306	N	0.002183	0.10252	0.350883
307	C	0.473765	0.91232	0.34931
308	N	0.474574	0.936891	0.344477
309	C	0.502254	0.949684	0.342432
310	N	0.029873	0.936812	0.344293
311	C	0.030621	0.912242	0.348982
312	N	0.502176	0.901456	0.351401
313	C	0.280451	0.591543	0.34279
314	N	0.279623	0.566888	0.339671
315	C	0.251811	0.55419	0.338014
316	N	0.22412	0.567068	0.338731
317	C	0.223453	0.591735	0.341204
318	N	0.251992	0.602279	0.343262
319	C	0.223318	0.412367	0.345063
320	N	0.224046	0.437007	0.342151
321	C	0.251687	0.449752	0.338098
322	N	0.279339	0.436857	0.33608
323	C	0.280065	0.412157	0.337974
324	N	0.251682	0.401575	0.342633
325	C	0.268478	0.146564	0.321548
326	C	0.23513	0.14661	0.323356
327	C	0.217776	0.167885	0.313295
328	C	0.234782	0.187718	0.628726
329	C	0.2675	0.1876	0.626621
330	C	0.285364	0.167735	0.309352
331	H	0.223723	0.203235	0.618428
332	H	0.223931	0.131873	0.336682
333	H	0.280284	0.13179	0.333618
334	H	0.278001	0.203083	0.615058
335	C	0.235518	0.857499	0.321577
336	C	0.268885	0.857508	0.322266
337	C	0.286104	0.83627	0.311508
338	C	0.268866	0.816473	0.62724
339	C	0.236117	0.816521	0.626343
340	C	0.218491	0.836323	0.309829
341	H	0.279788	0.800974	0.616564
342	H	0.280258	0.872221	0.335381
343	H	0.223899	0.872248	0.334116
344	H	0.225452	0.801037	0.615085
345	C	0.018502	0.649753	0.330592
346	C	0.485117	0.649729	0.331545
347	C	0.467763	0.671381	0.324709
348	C	0.485157	0.692287	0.645948
349	C	0.017827	0.692282	0.644847
350	C	0.035619	0.671395	0.322564
351	H	0.474447	0.708373	0.638241
352	H	0.473683	0.634126	0.340334
353	H	0.030198	0.634146	0.338634
354	H	0.028248	0.708378	0.63645
355	C	0.485517	0.354342	0.330601
356	C	0.018885	0.354339	0.332722
357	C	0.036354	0.332674	0.326602
358	C	0.019117	0.311751	0.647501
359	C	0.486473	0.311779	0.645272
360	C	0.468492	0.332703	0.32212
361	H	0.029917	0.295632	0.640289
362	H	0.030182	0.369981	0.341632
363	H	0.473697	0.369994	0.337944
364	H	0.476203	0.295663	0.636638
365	C	0.114103	0.115469	0.675892
366	C	0.088648	0.098875	0.67796
367	C	0.057506	0.106892	0.686096
368	C	0.053644	0.131973	0.36187
369	C	0.078754	0.148302	0.36022
370	C	0.109581	0.14074	0.682378
371	H	0.032101	0.139135	0.369316
372	H	0.092828	0.081011	0.670945
373	H	0.135858	0.108981	0.667592
374	H	0.07361	0.166138	0.366181
375	C	0.390263	0.888556	0.672906
376	C	0.415759	0.905104	0.67542
377	C	0.446841	0.897031	0.683847
378	C	0.450612	0.871871	0.358988
379	C	0.425489	0.855579	0.356726
380	C	0.39468	0.863249	0.679041
381	H	0.472098	0.864604	0.366391
382	H	0.411622	0.923028	0.668887
383	H	0.368525	0.895131	0.66473
384	H	0.430588	0.837706	0.362385
385	C	0.390343	0.115459	0.334835
386	C	0.415842	0.098958	0.338326
387	C	0.446943	0.107137	0.346338
388	C	0.450793	0.132482	0.685895
389	C	0.425731	0.148746	0.682284
390	C	0.394821	0.140874	0.339035
391	H	0.472305	0.139922	0.692518
392	H	0.411624	0.080892	0.333456
393	H	0.368537	0.108735	0.327501
394	H	0.430908	0.166718	0.686551
395	C	0.114069	0.888542	0.337934
396	C	0.088594	0.905068	0.341214
397	C	0.05752	0.896923	0.349494
398	C	0.053718	0.87167	0.690226
399	C	0.078794	0.855385	0.687006
400	C	0.109596	0.863168	0.342864
401	H	0.032233	0.864328	0.697378
402	H	0.09276	0.923069	0.335508
403	H	0.135812	0.895196	0.330022
404	H	0.073676	0.837451	0.691909
405	C	0.363718	0.616645	0.672367
406	C	0.338602	0.599662	0.672809
407	C	0.306975	0.607245	0.678104
408	C	0.302188	0.632455	0.351723
409	C	0.32682	0.649151	0.351375
410	C	0.358313	0.641923	0.677414
411	H	0.280347	0.639508	0.357138
412	H	0.343534	0.581731	0.667662
413	H	0.386022	0.610389	0.666956
414	H	0.320875	0.666939	0.356167
415	C	0.140106	0.387357	0.676979
416	C	0.165187	0.404353	0.67715
417	C	0.196825	0.396764	0.682204
418	C	0.201668	0.371664	0.35686
419	C	0.177014	0.354964	0.357021
420	C	0.145552	0.362116	0.682421
421	H	0.223596	0.364737	0.362513
422	H	0.160268	0.422218	0.671199
423	H	0.117822	0.39356	0.671153
424	H	0.18293	0.337204	0.362262
425	C	0.140178	0.616812	0.335846
426	C	0.165309	0.59986	0.337335
427	C	0.197004	0.607554	0.341137
428	C	0.201927	0.632968	0.677605
429	C	0.177295	0.649637	0.676049
430	C	0.145634	0.642203	0.337971
431	H	0.223879	0.640219	0.680697
432	H	0.160271	0.58178	0.334882
433	H	0.117762	0.6104	0.332319
434	H	0.183368	0.667548	0.678201
435	C	0.363389	0.387203	0.331664
436	C	0.338202	0.404106	0.333232
437	C	0.306474	0.396342	0.335719
438	C	0.301493	0.370879	0.669201
439	C	0.326188	0.354264	0.667461
440	C	0.357968	0.361787	0.332115
441	H	0.279438	0.363566	0.670246
442	H	0.343282	0.422233	0.332949
443	H	0.385881	0.393693	0.330054
444	H	0.32008	0.336319	0.667695
445	C	0.097032	0.257746	0.347107
446	C	0.105476	0.233083	0.345802
447	C	0.137103	0.225921	0.339715
448	C	0.159948	0.244577	0.669389
449	C	0.15155	0.269268	0.671266
450	C	0.119827	0.27639	0.342944
451	H	0.1832	0.240441	0.665142
452	H	0.088027	0.220401	0.348573
453	H	0.073755	0.261873	0.351144
454	H	0.16887	0.282004	0.667736
455	C	0.406873	0.746278	0.344279
456	C	0.398455	0.770945	0.342974
457	C	0.366922	0.778136	0.33607
458	C	0.344126	0.759496	0.664928
459	C	0.352493	0.734798	0.666748
460	C	0.384139	0.727654	0.339246
461	H	0.320938	0.763647	0.660051
462	H	0.415863	0.783612	0.346428
463	H	0.430085	0.742133	0.348958
464	H	0.335222	0.722077	0.662598
465	C	0.352867	0.269112	0.655162
466	C	0.344441	0.244421	0.654004
467	C	0.367209	0.225792	0.65887
468	C	0.398808	0.232985	0.331791
469	C	0.407264	0.257647	0.332558
470	C	0.384527	0.276267	0.660801
471	H	0.416187	0.220325	0.335581
472	H	0.321211	0.24027	0.649593
473	H	0.335565	0.28182	0.651156
474	H	0.430487	0.261775	0.337134
475	C	0.151166	0.734882	0.658338
476	C	0.159622	0.759565	0.656993
477	C	0.136924	0.778218	0.6622
478	C	0.105362	0.771061	0.335621
479	C	0.096861	0.746409	0.336502
480	C	0.119534	0.727772	0.664449
481	H	0.08803	0.783739	0.339644
482	H	0.182823	0.763694	0.6522
483	H	0.168401	0.722146	0.654037
484	H	0.073668	0.742291	0.341438
485	C	0.974209	0.989185	0.668408
486	C	0.974218	0.01477	0.668338
487	C	0.002379	0.028261	0.673214
488	C	0.030588	0.014754	0.344049
489	C	0.030587	0.989185	0.344042
490	C	0.002368	0.975691	0.673288
491	H	0.051679	0.023396	0.348051
492	H	0.953075	0.023448	0.665269
493	H	0.953066	0.980507	0.665346
494	H	0.051665	0.980534	0.348125
495	C	0.278824	0.489179	0.658676
496	C	0.278864	0.514758	0.658679
497	C	0.251647	0.528218	0.670112
498	C	0.224355	0.514802	0.347998
499	C	0.22435	0.489244	0.348135
500	C	0.251597	0.475752	0.670249
501	H	0.204135	0.523514	0.357238
502	H	0.299198	0.523473	0.649978
503	H	0.299154	0.480452	0.650025
504	H	0.204082	0.480599	0.357359
505	C	0.185421	0.17102	0.656403
506	N	0.164112	0.153139	0.665677
507	C	0.133493	0.15842	0.676146
508	N	0.125423	0.182385	0.678291
509	C	0.145573	0.200902	0.670443
510	N	0.175015	0.194273	0.659318
511	C	0.318578	0.833124	0.653793
512	N	0.339991	0.850968	0.662866
513	C	0.370683	0.845634	0.672796
514	N	0.378709	0.821654	0.674643
515	C	0.35849	0.80317	0.666926
516	N	0.328973	0.809857	0.656337
517	C	0.318169	0.170789	0.649034
518	N	0.339752	0.153006	0.657846
519	C	0.370742	0.158382	0.665701
520	N	0.378923	0.182347	0.665664
521	C	0.358642	0.200768	0.657886
522	N	0.328813	0.194022	0.649559
523	C	0.185823	0.833206	0.650681
524	N	0.164395	0.850986	0.660175
525	C	0.133557	0.845619	0.669124
526	N	0.125361	0.821659	0.669402
527	C	0.145517	0.803237	0.660985
528	N	0.175209	0.809964	0.651604
529	C	0.434798	0.673646	0.663883
530	N	0.41342	0.655298	0.668773
531	C	0.382012	0.66001	0.674442
532	N	0.373029	0.683836	0.675714
533	C	0.393105	0.70273	0.671999
534	N	0.423371	0.696612	0.665905
535	C	0.069245	0.330408	0.666718
536	N	0.090562	0.348736	0.672341
537	C	0.121895	0.344021	0.67892
538	N	0.130889	0.320203	0.680216
539	C	0.110866	0.301318	0.675734
540	N	0.080681	0.307445	0.668853
541	C	0.068738	0.673673	0.659713
542	N	0.090259	0.655388	0.664329
543	C	0.121797	0.660179	0.668174
544	N	0.130734	0.684015	0.668043
545	C	0.110577	0.702851	0.664472
546	N	0.080195	0.696652	0.660215
547	C	0.435285	0.33046	0.657863
548	N	0.413601	0.348721	0.661276
549	C	0.381981	0.343887	0.663485
550	N	0.373144	0.320031	0.663187
551	C	0.393413	0.301211	0.660858
552	N	0.423851	0.307474	0.658043
553	C	0.030606	0.091637	0.68373
554	N	0.02988	0.067077	0.67894
555	C	0.002278	0.054276	0.675567
556	N	0.474621	0.067154	0.675962
557	C	0.473798	0.091755	0.680353
558	N	0.002183	0.10252	0.684218
559	C	0.473765	0.91232	0.682645
560	N	0.474574	0.936891	0.677809
561	C	0.502254	0.949684	0.675764
562	N	0.029873	0.936812	0.677629
563	C	0.030621	0.912242	0.682314
564	N	0.502176	0.901456	0.684734
565	C	0.280451	0.591543	0.676126
566	N	0.279623	0.566888	0.673003
567	C	0.251811	0.55419	0.671347
568	N	0.22412	0.567068	0.672066
569	C	0.223453	0.591735	0.674536
570	N	0.251992	0.602279	0.676598
571	C	0.223318	0.412367	0.678398
572	N	0.224046	0.437007	0.675483
573	C	0.251687	0.449752	0.67143
574	N	0.279339	0.436857	0.669412
575	C	0.280065	0.412157	0.671307
576	N	0.251682	0.401575	0.675969
577	C	0.268478	0.146564	0.654881
578	C	0.23513	0.14661	0.656688
579	C	0.217776	0.167885	0.646628
580	C	0.234782	0.187718	0.962062
581	C	0.2675	0.1876	0.959953
582	C	0.285364	0.167735	0.642685
583	H	0.223723	0.203235	0.951764
584	H	0.223931	0.131873	0.670018
585	H	0.280284	0.13179	0.666952
586	H	0.278001	0.203083	0.948393
587	C	0.235518	0.857499	0.654911
588	C	0.268885	0.857508	0.6556
589	C	0.286104	0.83627	0.64484
590	C	0.268866	0.816473	0.960576
591	C	0.236117	0.816521	0.959675
592	C	0.218491	0.836323	0.643164
593	H	0.279788	0.800974	0.949896
594	H	0.280258	0.872221	0.668716
595	H	0.223899	0.872248	0.667448
596	H	0.225452	0.801037	0.948417
597	C	0.018502	0.649753	0.663924
598	C	0.485117	0.649729	0.664877
599	C	0.467763	0.671381	0.658043
600	C	0.485157	0.692287	0.979284
601	C	0.017827	0.692282	0.978179
602	C	0.035619	0.671395	0.655898
603	H	0.474447	0.708373	0.971573
604	H	0.473683	0.634126	0.673669
605	H	0.030198	0.634146	0.671966
606	H	0.028248	0.708378	0.969782
607	C	0.485517	0.354342	0.663934
608	C	0.018885	0.354339	0.666055
609	C	0.036354	0.332674	0.659934
610	C	0.019117	0.311751	0.980833
611	C	0.486473	0.311779	0.978608
612	C	0.468492	0.332703	0.655453
613	H	0.029917	0.295632	0.973625
614	H	0.030182	0.369981	0.674968
615	H	0.473697	0.369994	0.671276
616	H	0.476203	0.295663	0.96997
617	C	0.114103	0.115469	0.009224
618	C	0.088648	0.098875	0.011293
619	C	0.057506	0.106892	0.019428
620	C	0.053644	0.131973	0.695202
621	C	0.078755	0.148302	0.693552
622	C	0.109581	0.14074	0.01571
623	H	0.032101	0.139135	0.702649
624	H	0.092828	0.081011	0.004278
625	H	0.135858	0.108981	0.000927
626	H	0.07361	0.166138	0.699513
627	C	0.390263	0.888556	0.006239
628	C	0.415759	0.905104	0.008752
629	C	0.446841	0.897031	0.017181
630	C	0.450612	0.871871	0.692321
631	C	0.425489	0.855579	0.690058
632	C	0.39468	0.863249	0.012373
633	H	0.472098	0.864604	0.699724
634	H	0.411622	0.923028	0.002221
635	H	0.368525	0.895131	0.998062
636	H	0.430588	0.837706	0.695718
637	C	0.390343	0.115459	0.668171
638	C	0.415842	0.098958	0.671661
639	C	0.446943	0.107137	0.67967
640	C	0.450793	0.132482	0.019227
641	C	0.425731	0.148746	0.015616
642	C	0.394821	0.140874	0.672367
643	H	0.472305	0.139922	0.025851
644	H	0.411624	0.080892	0.666788
645	H	0.368537	0.108735	0.660835
646	H	0.430908	0.166718	0.019885
647	C	0.114069	0.888542	0.671266
648	C	0.088594	0.905068	0.674546
649	C	0.05752	0.896923	0.682826
650	C	0.053718	0.87167	0.023559
651	C	0.078794	0.855385	0.020339
652	C	0.109596	0.863168	0.676196
653	H	0.032233	0.864328	0.030712
654	H	0.09276	0.923069	0.66884
655	H	0.135812	0.895196	0.663355
656	H	0.073676	0.837451	0.025243
657	C	0.363718	0.616645	0.005701
658	C	0.338602	0.599662	0.006143
659	C	0.306975	0.607245	0.011438
660	C	0.302188	0.632455	0.685058
661	C	0.32682	0.649151	0.684707
662	C	0.358313	0.641923	0.010748
663	H	0.280347	0.639508	0.69047
664	H	0.343534	0.581731	0.000998
665	H	0.386022	0.610389	0.000288
666	H	0.320875	0.666939	0.689499
667	C	0.140106	0.387357	0.010312
668	C	0.165187	0.404353	0.010483
669	C	0.196825	0.396764	0.015536
670	C	0.201668	0.371664	0.690192
671	C	0.177014	0.354964	0.690353
672	C	0.145552	0.362116	0.015756
673	H	0.223596	0.364737	0.695845
674	H	0.160268	0.422218	0.004532
675	H	0.117822	0.39356	0.004487
676	H	0.18293	0.337204	0.695594
677	C	0.140178	0.616812	0.669178
678	C	0.165309	0.59986	0.670667
679	C	0.197004	0.607554	0.674469
680	C	0.201927	0.632968	0.010938
681	C	0.177295	0.649637	0.009382
682	C	0.145634	0.642203	0.671307
683	H	0.223879	0.640219	0.014031
684	H	0.160271	0.58178	0.668214
685	H	0.117762	0.6104	0.665651
686	H	0.183368	0.667548	0.011534
687	C	0.363389	0.387203	0.664998
688	C	0.338202	0.404106	0.666564
689	C	0.306474	0.396342	0.669054
690	C	0.301493	0.370879	0.002536
691	C	0.326188	0.354264	0.000793
692	C	0.357968	0.361787	0.66545
693	H	0.279438	0.363566	0.003578
694	H	0.343282	0.422233	0.666283
695	H	0.385881	0.393693	0.663388
696	H	0.32008	0.336319	0.001028
697	C	0.097032	0.257746	0.68044
698	C	0.105476	0.233083	0.679138
699	C	0.137103	0.225921	0.67305
700	C	0.159948	0.244577	0.002721
701	C	0.15155	0.269268	0.004599
702	C	0.119827	0.27639	0.676276
703	H	0.1832	0.240441	0.998474
704	H	0.088027	0.220401	0.681909
705	H	0.073755	0.261873	0.684476
706	H	0.16887	0.282004	0.001068
707	C	0.406873	0.746278	0.677615
708	C	0.398455	0.770945	0.676307
709	C	0.366922	0.778136	0.669402
710	C	0.344126	0.759496	0.99826
711	C	0.352493	0.734798	8.1e-05
712	C	0.384139	0.727654	0.672578
713	H	0.320938	0.763647	0.993384
714	H	0.415863	0.783612	0.679764
715	H	0.430085	0.742133	0.682294
716	H	0.335222	0.722077	0.995931
717	C	0.352867	0.269112	0.988494
718	C	0.344441	0.244421	0.987336
719	C	0.367209	0.225792	0.992206
720	C	0.398808	0.232985	0.665125
721	C	0.407264	0.257647	0.665891
722	C	0.384527	0.276267	0.994133
723	H	0.416187	0.220325	0.668914
724	H	0.321211	0.24027	0.982928
725	H	0.335565	0.28182	0.984488
726	H	0.430487	0.261775	0.670466
727	C	0.151166	0.734882	0.99167
728	C	0.159622	0.759565	0.990328
729	C	0.136924	0.778218	0.995532
730	C	0.105362	0.771061	0.668954
731	C	0.096861	0.746409	0.669834
732	C	0.119534	0.727772	0.997781
733	H	0.08803	0.783739	0.67298
734	H	0.182823	0.763694	0.985532
735	H	0.168401	0.722146	0.98737
736	H	0.073668	0.742291	0.67477
737	C	0.974209	0.989185	0.001741
738	C	0.974218	0.01477	0.00167
739	C	0.002379	0.028261	0.006546
740	C	0.030588	0.014754	0.677381
741	C	0.030587	0.989185	0.677378
742	C	0.002368	0.975691	0.00662
743	H	0.051679	0.023396	0.681384
744	H	0.953075	0.023448	0.998601
745	H	0.953066	0.980507	0.998682
746	H	0.051665	0.980534	0.681461
747	C	0.278824	0.489179	0.992008
748	C	0.278864	0.514758	0.992012
749	C	0.251647	0.528218	0.003444
750	C	0.224355	0.514802	0.68133
751	C	0.22435	0.489244	0.681467
752	C	0.251597	0.475752	0.003583
753	H	0.204135	0.523514	0.69057
754	H	0.299198	0.523473	0.98331
755	H	0.299154	0.480452	0.983357
756	H	0.204082	0.480599	0.690691
757	C	0.685422	0.17102	0.989736
758	N	0.664112	0.153139	0.99901
759	C	0.633494	0.15842	0.009479
760	N	0.625423	0.182385	0.011623
761	C	0.645572	0.200902	0.003776
762	N	0.675015	0.194273	0.992651
763	C	0.818578	0.833124	0.987125
764	N	0.839991	0.850968	0.996198
765	C	0.870685	0.845634	0.006131
766	N	0.878711	0.821654	0.007977
767	C	0.858489	0.80317	0.000258
768	N	0.828975	0.809857	0.989669
769	C	0.818169	0.170789	0.98237
770	N	0.839754	0.153006	0.991178
771	C	0.870744	0.158382	0.999036
772	N	0.878922	0.182347	0.998996
773	C	0.858644	0.200768	0.991218
774	N	0.828813	0.194022	0.982892
775	C	0.685824	0.833206	0.984016
776	N	0.664397	0.850986	0.993508
777	C	0.633557	0.845619	0.002459
778	N	0.625362	0.821659	0.002737
779	C	0.645518	0.803237	0.994317
780	N	0.675211	0.809964	0.98494
781	C	0.934798	0.673646	0.997219
782	N	0.913422	0.655298	0.002106
783	C	0.882011	0.66001	0.007777
784	N	0.873029	0.683836	0.009048
785	C	0.893105	0.70273	0.005334
786	N	0.923371	0.696612	0.999237
787	C	0.569247	0.330408	5e-05
788	N	0.590564	0.348736	0.005675
789	C	0.621895	0.344023	0.012255
790	N	0.630889	0.320203	0.01355
791	C	0.610867	0.301318	0.009067
792	N	0.580681	0.307445	0.002187
793	C	0.568739	0.673673	0.993046
794	N	0.59026	0.655388	0.997661
795	C	0.621796	0.660179	0.001506
796	N	0.630734	0.684015	0.001376
797	C	0.610578	0.702851	0.997808
798	N	0.580197	0.696652	0.993548
799	C	0.935287	0.33046	0.991195
800	N	0.913601	0.348721	0.994609
801	C	0.881981	0.343887	0.996817
802	N	0.873144	0.320031	0.99652
803	C	0.893413	0.301211	0.99419
804	N	0.923853	0.307474	0.991376
805	C	0.530607	0.091637	0.017063
806	N	0.52988	0.067077	0.012274
807	C	0.502278	0.054276	0.008901
808	N	0.974623	0.067154	0.009295
809	C	0.973798	0.091755	0.013686
810	N	0.502184	0.10252	0.01755
811	C	0.973765	0.91232	0.015978
812	N	0.974576	0.936891	0.011143
813	C	0.002255	0.949684	0.009099
814	N	0.529873	0.936812	0.010961
815	C	0.530621	0.912242	0.015648
816	N	0.002177	0.901456	0.018068
817	C	0.78045	0.591543	0.009458
818	N	0.779623	0.566888	0.006337
819	C	0.751811	0.55419	0.00468
820	N	0.724121	0.567068	0.005398
821	C	0.723453	0.591735	0.00787
822	N	0.751992	0.602279	0.00993
823	C	0.723317	0.412367	0.01173
824	N	0.724046	0.437007	0.008818
825	C	0.751686	0.449752	0.004764
826	N	0.779338	0.436857	0.002747
827	C	0.780065	0.412157	0.00464
828	N	0.751681	0.401575	0.009301
829	C	0.768478	0.146564	0.988213
830	C	0.73513	0.14661	0.990024
831	C	0.717776	0.167885	0.979963
832	C	0.734782	0.187718	0.295394
833	C	0.7675	0.1876	0.293287
834	C	0.785364	0.167735	0.976017
835	H	0.723724	0.203235	0.285096
836	H	0.723931	0.131873	0.00335
837	H	0.780283	0.13179	0.000285
838	H	0.778003	0.203083	0.281726
839	C	0.735518	0.857499	0.988243
840	C	0.768887	0.857508	0.988933
841	C	0.786106	0.83627	0.978176
842	C	0.768866	0.816473	0.293908
843	C	0.736117	0.816521	0.29301
844	C	0.718491	0.836323	0.976496
845	H	0.779787	0.800974	0.28323
846	H	0.78026	0.872221	0.002049
847	H	0.7239	0.872248	0.000783
848	H	0.725451	0.801037	0.281751
849	C	0.518503	0.649753	0.997259
850	C	0.985117	0.649729	0.998213
851	C	0.967763	0.671381	0.991376
852	C	0.985159	0.692287	0.312616
853	C	0.517828	0.692282	0.311514
854	C	0.535619	0.671395	0.98923
855	H	0.974446	0.708373	0.304906
856	H	0.973685	0.634126	0.007001
857	H	0.530198	0.634146	0.005299
858	H	0.528249	0.708378	0.303117
859	C	0.985516	0.354342	0.997266
860	C	0.518886	0.354339	0.999388
861	C	0.536355	0.332674	0.99327
862	C	0.519116	0.311751	0.314168
863	C	0.986475	0.311779	0.31194
864	C	0.968492	0.332703	0.988789
865	H	0.529918	0.295632	0.306957
866	H	0.530181	0.369981	0.008301
867	H	0.973696	0.369994	0.004611
868	H	0.976202	0.295663	0.303303
869	C	0.614102	0.115469	0.342556
870	C	0.588648	0.098875	0.344628
871	C	0.557507	0.106892	0.35276
872	C	0.553645	0.131973	0.028537
873	C	0.578756	0.148302	0.026887
874	C	0.609581	0.14074	0.349045
875	H	0.532102	0.139135	0.035982
876	H	0.592827	0.081011	0.337613
877	H	0.635858	0.108981	0.334259
878	H	0.57361	0.166138	0.032847
879	C	0.890262	0.888556	0.339574
880	C	0.915759	0.905104	0.342084
881	C	0.946843	0.897031	0.350514
882	C	0.950612	0.871871	0.025655
883	C	0.925489	0.855579	0.023393
884	C	0.894682	0.863249	0.345705
885	H	0.972098	0.864604	0.033058
886	H	0.911624	0.923028	0.335555
887	H	0.868527	0.895131	0.331397
888	H	0.930588	0.837706	0.029052
889	C	0.890342	0.115459	0.001503
890	C	0.915844	0.098958	0.004993
891	C	0.946942	0.107137	0.013005
892	C	0.950795	0.132482	0.352559
893	C	0.925731	0.148746	0.348948
894	C	0.894821	0.140874	0.005703
895	H	0.972305	0.139922	0.359183
896	H	0.911624	0.080892	0.000124
897	H	0.868537	0.108735	0.994167
898	H	0.930907	0.166718	0.353219
899	C	0.614069	0.888542	0.0046
900	C	0.588594	0.905068	0.007881
901	C	0.557521	0.896923	0.016159
902	C	0.55372	0.87167	0.356893
903	C	0.578793	0.855385	0.353674
904	C	0.609595	0.863168	0.009531
905	H	0.532234	0.864328	0.364045
906	H	0.592762	0.923069	0.002174
907	H	0.635811	0.895196	0.996687
908	H	0.573676	0.837451	0.358577
909	C	0.863717	0.616645	0.339035
910	C	0.838604	0.599662	0.339477
911	C	0.806974	0.607245	0.344771
912	C	0.80219	0.632455	0.01839
913	C	0.82682	0.649151	0.01804
914	C	0.858313	0.641923	0.344082
915	H	0.780347	0.639508	0.023804
916	H	0.843536	0.581731	0.33433
917	H	0.886024	0.610389	0.333623
918	H	0.820874	0.666939	0.022834
919	C	0.640106	0.387357	0.343647
920	C	0.665187	0.404353	0.343818
921	C	0.696826	0.396764	0.348868
922	C	0.701669	0.371664	0.023526
923	C	0.677014	0.354964	0.023687
924	C	0.645553	0.362116	0.349089
925	H	0.723597	0.364737	0.029179
926	H	0.660269	0.422218	0.337867
927	H	0.617823	0.39356	0.33782
928	H	0.682931	0.337204	0.028928
929	C	0.640179	0.616812	0.002511
930	C	0.665309	0.59986	0.004001
931	C	0.697005	0.607554	0.007802
932	C	0.701927	0.632968	0.344273
933	C	0.677296	0.649637	0.342717
934	C	0.645635	0.642203	0.004639
935	H	0.723879	0.640219	0.347365
936	H	0.660271	0.58178	0.00155
937	H	0.617762	0.6104	0.998986
938	H	0.683368	0.667548	0.344869
939	C	0.863391	0.387203	0.99833
940	C	0.838204	0.404106	0.999896
941	C	0.806474	0.396342	0.002386
942	C	0.801492	0.370879	0.335869
943	C	0.826187	0.354264	0.334127
944	C	0.857967	0.361787	0.998782
945	H	0.779437	0.363566	0.336913
946	H	0.843282	0.422233	0.999615
947	H	0.885883	0.393693	0.99672
948	H	0.82008	0.336319	0.334361
949	C	0.597033	0.257746	0.013773
950	C	0.605477	0.233083	0.01247
951	C	0.637104	0.225921	0.006382
952	C	0.659949	0.244577	0.336053
953	C	0.65155	0.269268	0.337931
954	C	0.619826	0.27639	0.009609
955	H	0.683201	0.240441	0.331809
956	H	0.588027	0.220401	0.015241
957	H	0.573755	0.261873	0.01781
958	H	0.66887	0.282004	0.334401
959	C	0.906873	0.746278	0.010948
960	C	0.898455	0.770945	0.009641
961	C	0.866922	0.778136	0.002736
962	C	0.844126	0.759496	0.331594
963	C	0.852495	0.734798	0.333415
964	C	0.884139	0.727654	0.005912
965	H	0.82094	0.763647	0.326717
966	H	0.915862	0.783612	0.013096
967	H	0.930085	0.742133	0.015626
968	H	0.835224	0.722077	0.329265
969	C	0.852866	0.269112	0.321828
970	C	0.844441	0.244421	0.320671
971	C	0.867211	0.225792	0.325538
972	C	0.898808	0.232985	0.998457
973	C	0.907263	0.257647	0.999224
974	C	0.884527	0.276267	0.327467
975	H	0.916189	0.220325	0.002246
976	H	0.821211	0.24027	0.316261
977	H	0.835564	0.28182	0.317821
978	H	0.930489	0.261775	0.003801
979	C	0.651167	0.734882	0.325005
980	C	0.659623	0.759565	0.32366
981	C	0.636923	0.778218	0.328866
982	C	0.605362	0.771061	0.002287
983	C	0.596861	0.746409	0.003168
984	C	0.619535	0.727772	0.331116
985	H	0.588029	0.783739	0.006312
986	H	0.682822	0.763694	0.318866
987	H	0.6684	0.722146	0.320703
988	H	0.573668	0.742291	0.008105
989	C	0.474209	0.989185	0.335073
990	C	0.474216	0.01477	0.335002
991	C	0.502379	0.028261	0.339879
992	C	0.530588	0.014754	0.010714
993	C	0.530588	0.989185	0.01071
994	C	0.502369	0.975691	0.339952
995	H	0.551679	0.023396	0.014717
996	H	0.453076	0.023448	0.331936
997	H	0.453066	0.980507	0.332014
998	H	0.551665	0.980534	0.014792
999	C	0.778824	0.489179	0.325343
1000	C	0.778864	0.514758	0.325345
1001	C	0.751646	0.528218	0.336776
1002	C	0.724356	0.514802	0.014663
1003	C	0.724351	0.489244	0.0148
1004	C	0.751599	0.475752	0.336917
1005	H	0.704135	0.523514	0.023905
1006	H	0.799198	0.523473	0.316644
1007	H	0.799156	0.480452	0.316691
1008	H	0.704083	0.480599	0.024025
1009	C	0.685422	0.17102	0.32307
1010	N	0.664112	0.153139	0.332343
1011	C	0.633494	0.15842	0.342814
1012	N	0.625423	0.182385	0.344956
1013	C	0.645572	0.200902	0.337107
1014	N	0.675015	0.194273	0.325984
1015	C	0.818578	0.833124	0.32046
1016	N	0.839991	0.850968	0.329533
1017	C	0.870685	0.845634	0.339464
1018	N	0.878711	0.821654	0.341311
1019	C	0.858489	0.80317	0.333591
1020	N	0.828975	0.809857	0.323003
1021	C	0.818169	0.170789	0.315701
1022	N	0.839754	0.153006	0.324513
1023	C	0.870744	0.158382	0.332369
1024	N	0.878922	0.182347	0.33233
1025	C	0.858644	0.200768	0.324552
1026	N	0.828813	0.194022	0.316226
1027	C	0.685824	0.833206	0.317349
1028	N	0.664397	0.850986	0.326841
1029	C	0.633557	0.845619	0.335792
1030	N	0.625362	0.821659	0.33607
1031	C	0.645518	0.803237	0.327651
1032	N	0.675211	0.809964	0.318272
1033	C	0.934798	0.673646	0.330552
1034	N	0.913422	0.655298	0.335437
1035	C	0.882011	0.66001	0.34111
1036	N	0.873029	0.683836	0.342382
1037	C	0.893105	0.70273	0.338667
1038	N	0.923371	0.696612	0.33257
1039	C	0.569247	0.330408	0.333386
1040	N	0.590564	0.348736	0.339008
1041	C	0.621895	0.344023	0.345588
1042	N	0.630889	0.320203	0.346883
1043	C	0.610867	0.301318	0.342399
1044	N	0.580681	0.307445	0.335521
1045	C	0.568739	0.673673	0.326381
1046	N	0.59026	0.655388	0.330995
1047	C	0.621796	0.660179	0.334838
1048	N	0.630734	0.684015	0.334711
1049	C	0.610578	0.702851	0.33114
1050	N	0.580197	0.696652	0.326883
1051	C	0.935287	0.33046	0.324528
1052	N	0.913601	0.348721	0.327942
1053	C	0.881981	0.343887	0.330151
1054	N	0.873144	0.320031	0.329853
1055	C	0.893413	0.301211	0.327524
1056	N	0.923853	0.307474	0.324709
1057	C	0.530607	0.091637	0.350397
1058	N	0.52988	0.067077	0.345608
1059	C	0.502278	0.054276	0.342235
1060	N	0.974623	0.067154	0.34263
1061	C	0.973798	0.091755	0.34702
1062	N	0.502184	0.10252	0.350883
1063	C	0.973765	0.91232	0.34931
1064	N	0.974576	0.936891	0.344477
1065	C	0.002255	0.949684	0.342432
1066	N	0.529873	0.936812	0.344293
1067	C	0.530621	0.912242	0.348982
1068	N	0.002177	0.901456	0.351401
1069	C	0.78045	0.591543	0.34279
1070	N	0.779623	0.566888	0.339671
1071	C	0.751811	0.55419	0.338014
1072	N	0.724121	0.567068	0.338731
1073	C	0.723453	0.591735	0.341204
1074	N	0.751992	0.602279	0.343262
1075	C	0.723317	0.412367	0.345063
1076	N	0.724046	0.437007	0.342151
1077	C	0.751686	0.449752	0.338098
1078	N	0.779338	0.436857	0.33608
1079	C	0.780065	0.412157	0.337974
1080	N	0.751681	0.401575	0.342633
1081	C	0.768478	0.146564	0.321548
1082	C	0.73513	0.14661	0.323356
1083	C	0.717776	0.167885	0.313295
1084	C	0.734782	0.187718	0.628726
1085	C	0.7675	0.1876	0.626621
1086	C	0.785364	0.167735	0.309352
1087	H	0.723724	0.203235	0.618428
1088	H	0.723931	0.131873	0.336682
1089	H	0.780283	0.13179	0.333618
1090	H	0.778003	0.203083	0.615058
1091	C	0.735518	0.857499	0.321577
1092	C	0.768887	0.857508	0.322266
1093	C	0.786106	0.83627	0.311508
1094	C	0.768866	0.816473	0.62724
1095	C	0.736117	0.816521	0.626343
1096	C	0.718491	0.836323	0.309829
1097	H	0.779787	0.800974	0.616564
1098	H	0.78026	0.872221	0.335381
1099	H	0.7239	0.872248	0.334116
1100	H	0.725451	0.801037	0.615085
1101	C	0.518503	0.649753	0.330592
1102	C	0.985117	0.649729	0.331545
1103	C	0.967763	0.671381	0.324709
1104	C	0.985159	0.692287	0.645948
1105	C	0.517828	0.692282	0.644847
1106	C	0.535619	0.671395	0.322564
1107	H	0.974446	0.708373	0.638241
1108	H	0.973685	0.634126	0.340334
1109	H	0.530198	0.634146	0.338634
1110	H	0.528249	0.708378	0.63645
1111	C	0.985516	0.354342	0.330601
1112	C	0.518886	0.354339	0.332722
1113	C	0.536355	0.332674	0.326602
1114	C	0.519116	0.311751	0.647501
1115	C	0.986475	0.311779	0.645272
1116	C	0.968492	0.332703	0.32212
1117	H	0.529918	0.295632	0.640289
1118	H	0.530181	0.369981	0.341632
1119	H	0.973696	0.369994	0.337944
1120	H	0.976202	0.295663	0.636638
1121	C	0.614102	0.115469	0.675892
1122	C	0.588648	0.098875	0.67796
1123	C	0.557507	0.106892	0.686096
1124	C	0.553645	0.131973	0.36187
1125	C	0.578756	0.148302	0.36022
1126	C	0.609581	0.14074	0.682378
1127	H	0.532102	0.139135	0.369316
1128	H	0.592827	0.081011	0.670945
1129	H	0.635858	0.108981	0.667592
1130	H	0.57361	0.166138	0.366181
1131	C	0.890262	0.888556	0.672906
1132	C	0.915759	0.905104	0.67542
1133	C	0.946843	0.897031	0.683847
1134	C	0.950612	0.871871	0.358988
1135	C	0.925489	0.855579	0.356726
1136	C	0.894682	0.863249	0.679041
1137	H	0.972098	0.864604	0.366391
1138	H	0.911624	0.923028	0.668887
1139	H	0.868527	0.895131	0.66473
1140	H	0.930588	0.837706	0.362385
1141	C	0.890342	0.115459	0.334835
1142	C	0.915844	0.098958	0.338326
1143	C	0.946942	0.107137	0.346338
1144	C	0.950795	0.132482	0.685895
1145	C	0.925731	0.148746	0.682284
1146	C	0.894821	0.140874	0.339035
1147	H	0.972305	0.139922	0.692518
1148	H	0.911624	0.080892	0.333456
1149	H	0.868537	0.108735	0.327501
1150	H	0.930907	0.166718	0.686551
1151	C	0.614069	0.888542	0.337934
1152	C	0.588594	0.905068	0.341214
1153	C	0.557521	0.896923	0.349494
1154	C	0.55372	0.87167	0.690226
1155	C	0.578793	0.855385	0.687006
1156	C	0.609595	0.863168	0.342864
1157	H	0.532234	0.864328	0.697378
1158	H	0.592762	0.923069	0.335508
1159	H	0.635811	0.895196	0.330022
1160	H	0.573676	0.837451	0.691909
1161	C	0.863717	0.616645	0.672367
1162	C	0.838604	0.599662	0.672809
1163	C	0.806974	0.607245	0.678104
1164	C	0.80219	0.632455	0.351723
1165	C	0.82682	0.649151	0.351375
1166	C	0.858313	0.641923	0.677414
1167	H	0.780347	0.639508	0.357138
1168	H	0.843536	0.581731	0.667662
1169	H	0.886024	0.610389	0.666956
1170	H	0.820874	0.666939	0.356167
1171	C	0.640106	0.387357	0.676979
1172	C	0.665187	0.404353	0.67715
1173	C	0.696826	0.396764	0.682204
1174	C	0.701669	0.371664	0.35686
1175	C	0.677014	0.354964	0.357021
1176	C	0.645553	0.362116	0.682421
1177	H	0.723597	0.364737	0.362513
1178	H	0.660269	0.422218	0.671199
1179	H	0.617823	0.39356	0.671153
1180	H	0.682931	0.337204	0.362262
1181	C	0.640179	0.616812	0.335846
1182	C	0.665309	0.59986	0.337335
1183	C	0.697005	0.607554	0.341137
1184	C	0.701927	0.632968	0.677605
1185	C	0.677296	0.649637	0.676049
1186	C	0.645635	0.642203	0.337971
1187	H	0.723879	0.640219	0.680697
1188	H	0.660271	0.58178	0.334882
1189	H	0.617762	0.6104	0.332319
1190	H	0.683368	0.667548	0.678201
1191	C	0.863391	0.387203	0.331664
1192	C	0.838204	0.404106	0.333232
1193	C	0.806474	0.396342	0.335719
1194	C	0.801492	0.370879	0.669201
1195	C	0.826187	0.354264	0.667461
1196	C	0.857967	0.361787	0.332115
1197	H	0.779437	0.363566	0.670246
1198	H	0.843282	0.422233	0.332949
1199	H	0.885883	0.393693	0.330054
1200	H	0.82008	0.336319	0.667695
1201	C	0.597033	0.257746	0.347107
1202	C	0.605477	0.233083	0.345802
1203	C	0.637104	0.225921	0.339715
1204	C	0.659949	0.244577	0.669389
1205	C	0.65155	0.269268	0.671266
1206	C	0.619826	0.27639	0.342944
1207	H	0.683201	0.240441	0.665142
1208	H	0.588027	0.220401	0.348573
1209	H	0.573755	0.261873	0.351144
1210	H	0.66887	0.282004	0.667736
1211	C	0.906873	0.746278	0.344279
1212	C	0.898455	0.770945	0.342974
1213	C	0.866922	0.778136	0.33607
1214	C	0.844126	0.759496	0.664928
1215	C	0.852495	0.734798	0.666748
1216	C	0.884139	0.727654	0.339246
1217	H	0.82094	0.763647	0.660051
1218	H	0.915862	0.783612	0.346428
1219	H	0.930085	0.742133	0.348958
1220	H	0.835224	0.722077	0.662598
1221	C	0.852866	0.269112	0.655162
1222	C	0.844441	0.244421	0.654004
1223	C	0.867211	0.225792	0.65887
1224	C	0.898808	0.232985	0.331791
1225	C	0.907263	0.257647	0.332558
1226	C	0.884527	0.276267	0.660801
1227	H	0.916189	0.220325	0.335581
1228	H	0.821211	0.24027	0.649593
1229	H	0.835564	0.28182	0.651156
1230	H	0.930489	0.261775	0.337134
1231	C	0.651167	0.734882	0.658338
1232	C	0.659623	0.759565	0.656993
1233	C	0.636923	0.778218	0.6622
1234	C	0.605362	0.771061	0.335621
1235	C	0.596861	0.746409	0.336502
1236	C	0.619535	0.727772	0.664449
1237	H	0.588029	0.783739	0.339644
1238	H	0.682822	0.763694	0.6522
1239	H	0.6684	0.722146	0.654037
1240	H	0.573668	0.742291	0.341438
1241	C	0.474209	0.989185	0.668408
1242	C	0.474216	0.01477	0.668338
1243	C	0.502379	0.028261	0.673214
1244	C	0.530588	0.014754	0.344049
1245	C	0.530588	0.989185	0.344042
1246	C	0.502369	0.975691	0.673288
1247	H	0.551679	0.023396	0.348051
1248	H	0.453076	0.023448	0.665269
1249	H	0.453066	0.980507	0.665346
1250	H	0.551665	0.980534	0.348125
1251	C	0.778824	0.489179	0.658676
1252	C	0.778864	0.514758	0.658679
1253	C	0.751646	0.528218	0.670112
1254	C	0.724356	0.514802	0.347998
1255	C	0.724351	0.489244	0.348135
1256	C	0.751599	0.475752	0.670249
1257	H	0.704135	0.523514	0.357238
1258	H	0.799198	0.523473	0.649978
1259	H	0.799156	0.480452	0.650025
1260	H	0.704083	0.480599	0.357359
1261	C	0.685422	0.17102	0.656403
1262	N	0.664112	0.153139	0.665677
1263	C	0.633494	0.15842	0.676146
1264	N	0.625423	0.182385	0.678291
1265	C	0.645572	0.200902	0.670443
1266	N	0.675015	0.194273	0.659318
1267	C	0.818578	0.833124	0.653793
1268	N	0.839991	0.850968	0.662866
1269	C	0.870685	0.845634	0.672796
1270	N	0.878711	0.821654	0.674643
1271	C	0.858489	0.80317	0.666926
1272	N	0.828975	0.809857	0.656337
1273	C	0.818169	0.170789	0.649034
1274	N	0.839754	0.153006	0.657846
1275	C	0.870744	0.158382	0.665701
1276	N	0.878922	0.182347	0.665664
1277	C	0.858644	0.200768	0.657886
1278	N	0.828813	0.194022	0.649559
1279	C	0.685824	0.833206	0.650681
1280	N	0.664397	0.850986	0.660175
1281	C	0.633557	0.845619	0.669124
1282	N	0.625362	0.821659	0.669402
1283	C	0.645518	0.803237	0.660985
1284	N	0.675211	0.809964	0.651604
1285	C	0.934798	0.673646	0.663883
1286	N	0.913422	0.655298	0.668773
1287	C	0.882011	0.66001	0.674442
1288	N	0.873029	0.683836	0.675714
1289	C	0.893105	0.70273	0.671999
1290	N	0.923371	0.696612	0.665905
1291	C	0.569247	0.330408	0.666718
1292	N	0.590564	0.348736	0.672341
1293	C	0.621895	0.344023	0.67892
1294	N	0.630889	0.320203	0.680216
1295	C	0.610867	0.301318	0.675734
1296	N	0.580681	0.307445	0.668853
1297	C	0.568739	0.673673	0.659713
1298	N	0.59026	0.655388	0.664329
1299	C	0.621796	0.660179	0.668174
1300	N	0.630734	0.684015	0.668043
1301	C	0.610578	0.702851	0.664472
1302	N	0.580197	0.696652	0.660215
1303	C	0.935287	0.33046	0.657863
1304	N	0.913601	0.348721	0.661276
1305	C	0.881981	0.343887	0.663485
1306	N	0.873144	0.320031	0.663187
1307	C	0.893413	0.301211	0.660858
1308	N	0.923853	0.307474	0.658043
1309	C	0.530607	0.091637	0.68373
1310	N	0.52988	0.067077	0.67894
1311	C	0.502278	0.054276	0.675567
1312	N	0.974623	0.067154	0.675962
1313	C	0.973798	0.091755	0.680353
1314	N	0.502184	0.10252	0.684218
1315	C	0.973765	0.91232	0.682645
1316	N	0.974576	0.936891	0.677809
1317	C	0.002255	0.949684	0.675764
1318	N	0.529873	0.936812	0.677629
1319	C	0.530621	0.912242	0.682314
1320	N	0.002177	0.901456	0.684734
1321	C	0.78045	0.591543	0.676126
1322	N	0.779623	0.566888	0.673003
1323	C	0.751811	0.55419	0.671347
1324	N	0.724121	0.567068	0.672066
1325	C	0.723453	0.591735	0.674536
1326	N	0.751992	0.602279	0.676598
1327	C	0.723317	0.412367	0.678398
1328	N	0.724046	0.437007	0.675483
1329	C	0.751686	0.449752	0.67143
1330	N	0.779338	0.436857	0.669412
1331	C	0.780065	0.412157	0.671307
1332	N	0.751681	0.401575	0.675969
1333	C	0.768478	0.146564	0.654881
1334	C	0.73513	0.14661	0.656688
1335	C	0.717776	0.167885	0.646628
1336	C	0.734782	0.187718	0.962062
1337	C	0.7675	0.1876	0.959953
1338	C	0.785364	0.167735	0.642685
1339	H	0.723724	0.203235	0.951764
1340	H	0.723931	0.131873	0.670018
1341	H	0.780283	0.13179	0.666952
1342	H	0.778003	0.203083	0.948393
1343	C	0.735518	0.857499	0.654911
1344	C	0.768887	0.857508	0.6556
1345	C	0.786106	0.83627	0.64484
1346	C	0.768866	0.816473	0.960576
1347	C	0.736117	0.816521	0.959675
1348	C	0.718491	0.836323	0.643164
1349	H	0.779787	0.800974	0.949896
1350	H	0.78026	0.872221	0.668716
1351	H	0.7239	0.872248	0.667448
1352	H	0.725451	0.801037	0.948417
1353	C	0.518503	0.649753	0.663924
1354	C	0.985117	0.649729	0.664877
1355	C	0.967763	0.671383	0.658043
1356	C	0.985159	0.692287	0.979284
1357	C	0.517828	0.692282	0.978179
1358	C	0.535619	0.671395	0.655898
1359	H	0.974446	0.708373	0.971573
1360	H	0.973685	0.634126	0.673669
1361	H	0.530198	0.634146	0.671966
1362	H	0.528249	0.708378	0.969782
1363	C	0.985516	0.354342	0.663934
1364	C	0.518886	0.354339	0.666055
1365	C	0.536355	0.332674	0.659934
1366	C	0.519116	0.311751	0.980833
1367	C	0.986475	0.311779	0.978608
1368	C	0.968492	0.332703	0.655453
1369	H	0.529918	0.295632	0.973625
1370	H	0.530181	0.369981	0.674968
1371	H	0.973696	0.369994	0.671276
1372	H	0.976202	0.295663	0.96997
1373	C	0.614102	0.115469	0.009224
1374	C	0.588648	0.098875	0.011293
1375	C	0.557507	0.106892	0.019428
1376	C	0.553645	0.131973	0.695202
1377	C	0.578756	0.148302	0.693552
1378	C	0.609581	0.14074	0.01571
1379	H	0.532102	0.139135	0.702649
1380	H	0.592827	0.081011	0.004278
1381	H	0.635858	0.108981	0.000927
1382	H	0.57361	0.166138	0.699513
1383	C	0.890262	0.888556	0.006239
1384	C	0.915759	0.905104	0.008752
1385	C	0.946843	0.897031	0.017181
1386	C	0.950612	0.871871	0.692321
1387	C	0.925489	0.855579	0.690058
1388	C	0.894682	0.863249	0.012373
1389	H	0.972098	0.864604	0.699724
1390	H	0.911624	0.923028	0.002221
1391	H	0.868527	0.895131	0.998062
1392	H	0.930588	0.837706	0.695718
1393	C	0.890342	0.115459	0.668171
1394	C	0.915844	0.098958	0.671661
1395	C	0.946942	0.107137	0.67967
1396	C	0.950795	0.132482	0.019227
1397	C	0.925731	0.148746	0.015616
1398	C	0.894821	0.140874	0.672367
1399	H	0.972305	0.139922	0.025851
1400	H	0.911624	0.080892	0.666788
1401	H	0.868537	0.108735	0.660835
1402	H	0.930907	0.166718	0.019885
1403	C	0.614069	0.888542	0.671266
1404	C	0.588594	0.905068	0.674546
1405	C	0.557521	0.896923	0.682826
1406	C	0.55372	0.87167	0.023559
1407	C	0.578793	0.855385	0.020339
1408	C	0.609595	0.863168	0.676196
1409	H	0.532234	0.864328	0.030712
1410	H	0.592762	0.923069	0.66884
1411	H	0.635811	0.895196	0.663355
1412	H	0.573676	0.837451	0.025243
1413	C	0.863717	0.616645	0.005701
1414	C	0.838604	0.599662	0.006143
1415	C	0.806974	0.607245	0.011438
1416	C	0.80219	0.632455	0.685058
1417	C	0.82682	0.649151	0.684707
1418	C	0.858313	0.641923	0.010748
1419	H	0.780347	0.639508	0.69047
1420	H	0.843536	0.581731	0.000998
1421	H	0.886024	0.610389	0.000288
1422	H	0.820874	0.666939	0.689499
1423	C	0.640106	0.387357	0.010312
1424	C	0.665187	0.404353	0.010483
1425	C	0.696826	0.396764	0.015536
1426	C	0.701669	0.371664	0.690192
1427	C	0.677014	0.354964	0.690353
1428	C	0.645553	0.362116	0.015756
1429	H	0.723597	0.364737	0.695845
1430	H	0.660269	0.422218	0.004532
1431	H	0.617823	0.39356	0.004487
1432	H	0.682931	0.337204	0.695594
1433	C	0.640179	0.616812	0.669178
1434	C	0.665309	0.59986	0.670667
1435	C	0.697005	0.607554	0.674469
1436	C	0.701927	0.632968	0.010938
1437	C	0.677296	0.649637	0.009382
1438	C	0.645635	0.642203	0.671307
1439	H	0.723879	0.640219	0.014031
1440	H	0.660271	0.58178	0.668214
1441	H	0.617762	0.6104	0.665651
1442	H	0.683368	0.667548	0.011534
1443	C	0.863391	0.387203	0.664998
1444	C	0.838204	0.404106	0.666564
1445	C	0.806474	0.396342	0.669054
1446	C	0.801492	0.370879	0.002536
1447	C	0.826187	0.354264	0.000793
1448	C	0.857967	0.361787	0.66545
1449	H	0.779437	0.363566	0.003578
1450	H	0.843282	0.422233	0.666283
1451	H	0.885883	0.393693	0.663388
1452	H	0.82008	0.336319	0.001028
1453	C	0.597033	0.257746	0.68044
1454	C	0.605477	0.233083	0.679138
1455	C	0.637104	0.225921	0.67305
1456	C	0.659949	0.244577	0.002721
1457	C	0.65155	0.269268	0.004599
1458	C	0.619826	0.27639	0.676276
1459	H	0.683201	0.240441	0.998474
1460	H	0.588027	0.220401	0.681909
1461	H	0.573755	0.261873	0.684476
1462	H	0.66887	0.282004	0.001068
1463	C	0.906873	0.746278	0.677615
1464	C	0.898455	0.770945	0.676307
1465	C	0.866922	0.778136	0.669402
1466	C	0.844126	0.759496	0.99826
1467	C	0.852495	0.734798	8.1e-05
1468	C	0.884139	0.727654	0.672578
1469	H	0.82094	0.763647	0.993384
1470	H	0.915862	0.783612	0.679764
1471	H	0.930085	0.742133	0.682294
1472	H	0.835224	0.722077	0.995931
1473	C	0.852866	0.269112	0.988494
1474	C	0.844441	0.244421	0.987336
1475	C	0.867211	0.225792	0.992206
1476	C	0.898808	0.232985	0.665125
1477	C	0.907263	0.257647	0.665891
1478	C	0.884527	0.276267	0.994133
1479	H	0.916189	0.220325	0.668914
1480	H	0.821211	0.24027	0.982928
1481	H	0.835564	0.28182	0.984488
1482	H	0.930489	0.261775	0.670466
1483	C	0.651167	0.734882	0.99167
1484	C	0.659623	0.759565	0.990328
1485	C	0.636923	0.778218	0.995532
1486	C	0.605362	0.771061	0.668954
1487	C	0.596861	0.746409	0.669834
1488	C	0.619535	0.727772	0.997781
1489	H	0.588029	0.783739	0.67298
1490	H	0.682822	0.763694	0.985532
1491	H	0.6684	0.722146	0.98737
1492	H	0.573668	0.742291	0.67477
1493	C	0.474209	0.989185	0.001741
1494	C	0.474216	0.01477	0.00167
1495	C	0.502379	0.028261	0.006546
1496	C	0.530588	0.014754	0.677381
1497	C	0.530588	0.989185	0.677378
1498	C	0.502369	0.975691	0.00662
1499	H	0.551679	0.023396	0.681384
1500	H	0.453076	0.023448	0.998601
1501	H	0.453066	0.980507	0.998682
1502	H	0.551665	0.980534	0.681461
1503	C	0.778824	0.489179	0.992008
1504	C	0.778864	0.514758	0.992012
1505	C	0.751646	0.528218	0.003444
1506	C	0.724356	0.514802	0.68133
1507	C	0.724351	0.489244	0.681467
1508	C	0.751599	0.475752	0.003583
1509	H	0.704135	0.523514	0.69057
1510	H	0.799198	0.523473	0.98331
1511	H	0.799156	0.480452	0.983357
1512	H	0.704083	0.480599	0.690691
