data_C486H216N108O108_2018-02-15_10:40:07
#******************************************
#
# CIF file created by Zeo++
# Zeo++ is an open source package to
# analyze microporous materials
#
#*******************************************

_cell_length_a		34.2227   
_cell_length_b		34.0643   
_cell_length_c		29.8076   
_cell_angle_alpha		90   
_cell_angle_beta		90   
_cell_angle_gamma		90.27   

_symmetry_space_group_name_H-M		'P1'
_symmetry_Int_Tables_number		1
_symmetry_cell_setting		Monoclinic

loop_
_symmetry_equiv_pos_as_xyz
'+x,+y,+z'

loop_
_atom_site_label
_atom_site_type_symbol
_atom_site_fract_x
_atom_site_fract_y
_atom_site_fract_z
1	C	0.07714	0.373433	0.003977
2	C	0.116931	0.384623	0.002147
3	C	0.129023	0.424314	0.000621
4	C	0.099867	0.453564	0.002191
5	C	0.059545	0.443868	0.002536
6	C	0.048828	0.40357	0.002459
7	H	0.10821	0.482469	0.000768
8	H	0.019821	0.395999	0.003694
9	H	0.137788	0.363202	0.00203
10	C	0.9219	0.630156	0.00394
11	C	0.882248	0.618316	0.001704
12	C	0.870819	0.5784	0.000876
13	C	0.900733	0.549913	0.001795
14	C	0.940906	0.56007	0.000319
15	C	0.950794	0.600529	0.002077
16	H	0.893003	0.520967	0.004502
17	H	0.979673	0.60862	0.002362
18	H	0.861027	0.639371	0.999889
19	C	0.628719	0.079929	0.00411
20	C	0.618051	0.119949	0.002
21	C	0.578691	0.132207	4.4e-05
22	C	0.549245	0.102981	0.0016
23	C	0.558394	0.062473	0.002372
24	C	0.598363	0.051567	0.0026
25	H	0.520576	0.111382	0.999701
26	H	0.605499	0.022403	0.004053
27	H	0.639618	0.140845	0.001922
28	C	0.370926	0.92481	0.004323
29	C	0.382617	0.885009	0.0026
30	C	0.422325	0.87383	0.001932
31	C	0.450769	0.904017	0.00258
32	C	0.440804	0.944259	0.000436
33	C	0.400563	0.953991	0.002087
34	H	0.479557	0.896434	0.005465
35	H	0.392675	0.982971	0.002006
36	H	0.36167	0.863479	0.001003
37	C	0.0618	0.143486	0.008472
38	C	0.022665	0.130325	0.008092
39	C	0.991105	0.156655	0.004482
40	C	0.999191	0.197181	0.000158
41	C	0.038169	0.211567	0.001006
42	C	0.069153	0.18416	0.004859
43	H	0.97632	0.216477	0.99951
44	H	0.097526	0.193897	0.005993
45	H	0.017006	0.100787	0.010793
46	C	0.937271	0.860326	0.011311
47	C	0.97645	0.873372	0.011527
48	C	0.007988	0.846983	0.008342
49	C	0.999816	0.806486	0.003802
50	C	0.960787	0.792186	0.003937
51	C	0.929851	0.819679	0.007407
52	H	0.022641	0.787134	0.00323
53	H	0.901433	0.810035	0.007866
54	H	0.982158	0.902904	0.014113
55	C	0.857402	0.063997	0.008308
56	C	0.870198	0.02472	0.008471
57	C	0.843745	0.992897	0.006051
58	C	0.80342	0.000894	0.001949
59	C	0.789402	0.040056	0.001983
60	C	0.816954	0.071281	0.004969
61	H	0.784018	0.977893	0.001902
62	H	0.807513	0.099791	0.005569
63	H	0.899594	0.019154	0.010868
64	C	0.141725	0.939729	0.011739
65	C	0.128916	0.979002	0.011332
66	C	0.155315	0.010797	0.007905
67	C	0.195609	0.002734	0.003539
68	C	0.209706	0.963587	0.004204
69	C	0.182157	0.932419	0.008055
70	H	0.214955	0.025765	0.002687
71	H	0.191584	0.903911	0.008901
72	H	0.099527	0.984589	0.013763
73	C	0.436576	0.642756	0.001463
74	C	0.475995	0.631069	0.999044
75	C	0.506803	0.658676	0.999601
76	C	0.49767	0.698915	0.003103
77	C	0.458341	0.711691	0.006389
78	C	0.428095	0.683041	0.006098
79	H	0.519984	0.719094	0.002617
80	H	0.399438	0.691617	0.006228
81	H	0.482385	0.60173	0.996394
82	C	0.56288	0.362183	0.991683
83	C	0.523613	0.374493	0.992995
84	C	0.492492	0.34752	0.997823
85	C	0.50118	0.307269	0.00261
86	C	0.540313	0.293742	0.00105
87	C	0.570857	0.321756	0.995927
88	H	0.478562	0.287505	0.0042
89	H	0.599337	0.312656	0.994414
90	H	0.517521	0.403887	0.990298
91	C	0.640314	0.567726	0.993414
92	C	0.627818	0.528274	0.990875
93	C	0.654463	0.496848	0.992509
94	C	0.694629	0.505458	0.997353
95	C	0.708298	0.544772	0.000584
96	C	0.680532	0.575597	0.999212
97	H	0.714138	0.482718	0.997883
98	H	0.689765	0.604249	0.999621
99	H	0.598502	0.522291	0.987825
100	C	0.358093	0.43731	0.999765
101	C	0.371239	0.476559	0.001436
102	C	0.344961	0.508147	0.005146
103	C	0.304598	0.50003	0.008518
104	C	0.29033	0.460901	0.006646
105	C	0.317585	0.429803	0.002416
106	H	0.285405	0.523028	0.009167
107	H	0.307893	0.401342	0.000339
108	H	0.400665	0.482307	0.999161
109	C	0.970446	0.530341	0.33193
110	N	0.003222	0.535319	0.023995
111	C	0.032972	0.509139	0.026403
112	C	0.03036	0.473668	0.335385
113	N	0.998002	0.468944	0.309486
114	C	0.968174	0.495121	0.306222
115	H	0.056154	0.515052	0.046996
116	C	0.939085	0.487037	0.2751
117	O	0.926521	0.453462	0.272489
118	O	0.935641	0.506615	0.240397
119	H	0.945886	0.530267	0.236038
120	C	0.470695	0.973859	0.331702
121	N	0.466331	0.006774	0.023829
122	C	0.49299	0.036366	0.02627
123	C	0.528269	0.033382	0.335279
124	N	0.532377	0.000882	0.309327
125	C	0.505729	0.971208	0.306024
126	H	0.487539	0.059729	0.046837
127	C	0.5133	0.941858	0.274936
128	O	0.54646	0.928826	0.272712
129	O	0.493492	0.938255	0.240478
130	H	0.470142	0.948783	0.23616
131	C	0.066452	0.332812	0.006342
132	N	0.037655	0.319261	0.312035
133	C	0.026498	0.280978	0.309166
134	C	0.046352	0.252615	0.001644
135	N	0.074441	0.26634	0.029836
136	C	0.085445	0.304571	0.033894
137	H	0.005088	0.273148	0.286938
138	C	0.112715	0.313645	0.066842
139	O	0.140293	0.291508	0.07252
140	O	0.104341	0.334139	0.099679
141	H	0.083279	0.34907	0.101923
142	C	0.932076	0.670905	0.006686
143	N	0.961452	0.684779	0.313407
144	C	0.972677	0.723069	0.311361
145	C	0.952427	0.751155	0.003821
146	N	0.923737	0.737128	0.031033
147	C	0.912582	0.69885	0.034176
148	H	0.994577	0.731086	0.289855
149	C	0.88474	0.689353	0.066329
150	O	0.857005	0.711376	0.071544
151	O	0.892921	0.66922	0.099531
152	H	0.914039	0.654422	0.102221
153	C	0.669027	0.069015	0.006676
154	N	0.682226	0.039812	0.312716
155	C	0.720191	0.028392	0.31012
156	C	0.748617	0.048329	0.002597
157	N	0.735239	0.076798	0.030481
158	C	0.697317	0.08807	0.034248
159	H	0.727757	0.006649	0.288178
160	C	0.688511	0.115608	0.067052
161	O	0.710709	0.143462	0.072205
162	O	0.668125	0.107148	0.099943
163	H	0.653158	0.085928	0.102288
164	C	0.330356	0.934862	0.006967
165	N	0.316777	0.964547	0.313953
166	C	0.278752	0.975823	0.311931
167	C	0.25055	0.955309	0.004147
168	N	0.264288	0.926307	0.03109
169	C	0.302291	0.915093	0.034214
170	H	0.271003	0.997926	0.290554
171	C	0.311363	0.886914	0.066169
172	O	0.289204	0.858975	0.070992
173	O	0.331411	0.894872	0.099504
174	H	0.346322	0.916074	0.102454
175	C	0.432961	0.833274	0.335127
176	N	0.412062	0.808279	0.028346
177	C	0.418754	0.769174	0.031651
178	C	0.449465	0.752476	0.339954
179	N	0.470033	0.777297	0.313046
180	C	0.463681	0.816581	0.309324
181	H	0.401802	0.752669	0.052754
182	C	0.48511	0.837019	0.277382
183	O	0.520126	0.830382	0.274926
184	O	0.470017	0.848589	0.242152
185	H	0.444581	0.851733	0.23787
186	C	0.569061	0.172932	0.331105
187	N	0.540108	0.186481	0.024991
188	C	0.529064	0.224656	0.027445
189	C	0.548973	0.252899	0.334611
190	N	0.577357	0.239198	0.306935
191	C	0.588469	0.201041	0.303577
192	H	0.507451	0.232432	0.049341
193	C	0.61596	0.191795	0.271029
194	O	0.644012	0.21373	0.266202
195	O	0.607354	0.171691	0.237896
196	H	0.586027	0.156978	0.235315
197	C	0.83025	0.56789	0.333365
198	N	0.805167	0.589679	0.025247
199	C	0.76599	0.583734	0.027304
200	C	0.749163	0.552898	0.335515
201	N	0.774075	0.531365	0.309996
202	C	0.813452	0.53694	0.307612
203	H	0.749496	0.601386	0.047481
204	C	0.833945	0.514535	0.276815
205	O	0.826773	0.479398	0.274692
206	O	0.846697	0.529019	0.241665
207	H	0.850487	0.554457	0.236939
208	C	0.169606	0.434166	0.332371
209	N	0.183192	0.462219	0.027729
210	C	0.221396	0.47267	0.031484
211	C	0.249514	0.452921	0.338669
212	N	0.235803	0.425502	0.309488
213	C	0.197621	0.415131	0.304696
214	H	0.22927	0.493639	0.054344
215	C	0.188316	0.388554	0.27096
216	O	0.209752	0.360393	0.265255
217	O	0.16869	0.398286	0.237983
218	H	0.154416	0.419875	0.23606
219	C	0.092116	0.115547	0.01414
220	N	0.115609	0.107813	0.311665
221	C	0.140417	0.076751	0.30962
222	C	0.140085	0.049255	0.011638
223	N	0.116344	0.056989	0.047051
224	C	0.093249	0.089111	0.051
225	H	0.155385	0.071412	0.280579
226	C	0.070296	0.092872	0.08925
227	O	0.057662	0.063281	0.107516
228	O	0.071922	0.122242	0.113574
229	H	0.083518	0.144708	0.106411
230	C	0.906941	0.888396	0.015977
231	N	0.883582	0.895231	0.31313
232	C	0.858811	0.92624	0.309887
233	C	0.858926	0.954545	0.011036
234	N	0.882507	0.947741	0.046829
235	C	0.905637	0.915777	0.051926
236	H	0.843889	0.930761	0.280628
237	C	0.928366	0.913006	0.090465
238	O	0.940949	0.943052	0.107788
239	O	0.926662	0.884257	0.115727
240	H	0.915131	0.861606	0.109218
241	C	0.885629	0.094433	0.013047
242	N	0.893599	0.117181	0.309882
243	C	0.925154	0.14149	0.306884
244	C	0.952746	0.141388	0.008656
245	N	0.94479	0.11845	0.044808
246	C	0.912267	0.095857	0.049621
247	H	0.93045	0.156193	0.277578
248	C	0.908241	0.073636	0.088526
249	O	0.937511	0.060408	0.106417
250	O	0.879152	0.076095	0.112948
251	H	0.857112	0.088125	0.105744
252	C	0.113518	0.909319	0.016905
253	N	0.105679	0.886133	0.314048
254	C	0.07422	0.861676	0.311207
255	C	0.046353	0.862248	0.012694
256	N	0.054127	0.885652	0.048514
257	C	0.086617	0.908312	0.053241
258	H	0.06898	0.846872	0.281958
259	C	0.09044	0.930975	0.091821
260	O	0.061074	0.943898	0.109808
261	O	0.119367	0.928765	0.116538
262	H	0.141553	0.916907	0.109552
263	C	0.406904	0.613798	0.330588
264	N	0.384427	0.60569	0.033848
265	C	0.360265	0.573988	0.036779
266	C	0.360076	0.546636	0.334658
267	N	0.382634	0.554783	0.298356
268	C	0.405214	0.587371	0.293718
269	H	0.345761	0.568472	0.066125
270	C	0.426846	0.591822	0.254512
271	O	0.439586	0.56248	0.23606
272	O	0.423593	0.620905	0.230036
273	H	0.411719	0.643014	0.237594
274	C	0.592725	0.390777	0.318812
275	N	0.61711	0.398354	0.020583
276	C	0.641511	0.429941	0.02255
277	C	0.639645	0.458179	0.321386
278	N	0.615126	0.450608	0.28659
279	C	0.592499	0.417943	0.282604
280	H	0.657194	0.435049	0.051179
281	C	0.568726	0.414265	0.244962
282	O	0.554877	0.44383	0.228138
283	O	0.569916	0.385178	0.220194
284	H	0.582113	0.362947	0.226477
285	C	0.612062	0.597908	0.322458
286	N	0.604189	0.620095	0.026034
287	C	0.572832	0.644294	0.029427
288	C	0.545331	0.644687	0.327561
289	N	0.553066	0.622203	0.291059
290	C	0.585474	0.59981	0.285864
291	H	0.567471	0.658241	0.059169
292	C	0.589408	0.578189	0.246546
293	O	0.560111	0.565571	0.227883
294	O	0.618699	0.580658	0.222404
295	H	0.640923	0.59235	0.230017
296	C	0.386071	0.407231	0.326744
297	N	0.395214	0.38428	0.029296
298	C	0.427103	0.360639	0.030897
299	C	0.453872	0.361907	0.328319
300	N	0.444782	0.385084	0.292801
301	C	0.41186	0.406943	0.28936
302	H	0.433304	0.345744	0.059805
303	C	0.406745	0.429786	0.251132
304	O	0.435465	0.443974	0.23276
305	O	0.377185	0.427114	0.227462
306	H	0.35545	0.414476	0.234986
307	C	0.07714	0.373433	0.33731
308	C	0.116931	0.384623	0.335482
309	C	0.129023	0.424314	0.333955
310	C	0.099867	0.453564	0.335525
311	C	0.059545	0.443868	0.335867
312	C	0.048828	0.40357	0.33579
313	H	0.10821	0.482469	0.334102
314	H	0.019821	0.395999	0.337028
315	H	0.137788	0.363202	0.335363
316	C	0.9219	0.630156	0.337273
317	C	0.882248	0.618316	0.335039
318	C	0.870819	0.5784	0.33421
319	C	0.900733	0.549913	0.335127
320	C	0.940906	0.56007	0.333651
321	C	0.950794	0.600529	0.335408
322	H	0.893003	0.520967	0.337833
323	H	0.979673	0.60862	0.335693
324	H	0.861027	0.639371	0.333223
325	C	0.628719	0.079929	0.337444
326	C	0.618051	0.119949	0.335332
327	C	0.578691	0.132207	0.333377
328	C	0.549245	0.102981	0.334932
329	C	0.558394	0.062473	0.335706
330	C	0.598363	0.051567	0.335931
331	H	0.520576	0.111382	0.333035
332	H	0.605499	0.022403	0.337387
333	H	0.639618	0.140845	0.335254
334	C	0.370926	0.92481	0.337656
335	C	0.382617	0.885009	0.335931
336	C	0.422325	0.87383	0.335265
337	C	0.450769	0.904017	0.335911
338	C	0.440804	0.944259	0.333769
339	C	0.400563	0.953991	0.33542
340	H	0.479557	0.896434	0.3388
341	H	0.392675	0.982971	0.335341
342	H	0.36167	0.863479	0.334337
343	C	0.0618	0.143486	0.341805
344	C	0.022665	0.130325	0.341426
345	C	0.991105	0.156655	0.337817
346	C	0.999191	0.197181	0.333491
347	C	0.038169	0.211567	0.334339
348	C	0.069153	0.18416	0.338192
349	H	0.97632	0.216477	0.332844
350	H	0.097526	0.193897	0.339326
351	H	0.017006	0.100787	0.344127
352	C	0.937271	0.860326	0.344644
353	C	0.97645	0.873372	0.344862
354	C	0.007988	0.846983	0.341675
355	C	0.999816	0.806486	0.337136
356	C	0.960787	0.792186	0.33727
357	C	0.929851	0.819679	0.340739
358	H	0.022641	0.787134	0.336562
359	H	0.901433	0.810035	0.341198
360	H	0.982158	0.902904	0.347445
361	C	0.857402	0.063997	0.341641
362	C	0.870198	0.02472	0.341805
363	C	0.843745	0.992897	0.339383
364	C	0.80342	0.000894	0.335283
365	C	0.789402	0.040056	0.335315
366	C	0.816954	0.071281	0.338303
367	H	0.784018	0.977893	0.335236
368	H	0.807513	0.099791	0.338904
369	H	0.899594	0.019154	0.344201
370	C	0.141725	0.939729	0.345073
371	C	0.128916	0.979002	0.344664
372	C	0.155315	0.010797	0.341238
373	C	0.195609	0.002734	0.33687
374	C	0.209706	0.963587	0.337538
375	C	0.182157	0.932419	0.341389
376	H	0.214955	0.025765	0.336022
377	H	0.191584	0.903911	0.342235
378	H	0.099527	0.984589	0.347096
379	C	0.436576	0.642756	0.334794
380	C	0.475995	0.631069	0.332378
381	C	0.506803	0.658676	0.332933
382	C	0.49767	0.698915	0.336434
383	C	0.458341	0.711691	0.339722
384	C	0.428095	0.683041	0.33943
385	H	0.519984	0.719094	0.335948
386	H	0.399438	0.691617	0.339561
387	H	0.482385	0.60173	0.329729
388	C	0.56288	0.362183	0.325016
389	C	0.523613	0.374493	0.32633
390	C	0.492492	0.34752	0.331155
391	C	0.50118	0.307269	0.335945
392	C	0.540313	0.293742	0.334383
393	C	0.570857	0.321756	0.32926
394	H	0.478562	0.287505	0.337531
395	H	0.599337	0.312656	0.327748
396	H	0.517521	0.403887	0.32363
397	C	0.640314	0.567726	0.32675
398	C	0.627818	0.528274	0.324209
399	C	0.654463	0.496848	0.325843
400	C	0.694629	0.505458	0.330685
401	C	0.708298	0.544772	0.333916
402	C	0.680532	0.575597	0.332544
403	H	0.714138	0.482718	0.331218
404	H	0.689765	0.604249	0.332953
405	H	0.598502	0.522291	0.32116
406	C	0.358093	0.43731	0.333099
407	C	0.371239	0.476559	0.334768
408	C	0.344961	0.508147	0.338477
409	C	0.304598	0.50003	0.341852
410	C	0.29033	0.460901	0.33998
411	C	0.317585	0.429803	0.33575
412	H	0.285405	0.523028	0.3425
413	H	0.307893	0.401342	0.333672
414	H	0.400665	0.482307	0.332495
415	C	0.970446	0.530341	0.665263
416	N	0.003222	0.535319	0.357328
417	C	0.032972	0.509139	0.359737
418	C	0.03036	0.473668	0.668719
419	N	0.998002	0.468944	0.642819
420	C	0.968174	0.495121	0.639555
421	H	0.056154	0.515052	0.380329
422	C	0.939085	0.487037	0.608432
423	O	0.926521	0.453462	0.605822
424	O	0.935641	0.506615	0.57373
425	H	0.945886	0.530267	0.569372
426	C	0.470695	0.973859	0.665035
427	N	0.466331	0.006774	0.357164
428	C	0.49299	0.036366	0.359603
429	C	0.528269	0.033382	0.668611
430	N	0.532377	0.000882	0.642662
431	C	0.505729	0.971208	0.639357
432	H	0.487539	0.059729	0.380172
433	C	0.5133	0.941858	0.608271
434	O	0.54646	0.928826	0.606047
435	O	0.493492	0.938255	0.57381
436	H	0.470142	0.948783	0.569492
437	C	0.066452	0.332812	0.339675
438	N	0.037655	0.319261	0.645369
439	C	0.026498	0.280978	0.642501
440	C	0.046352	0.252615	0.334978
441	N	0.074441	0.26634	0.363169
442	C	0.085445	0.304571	0.367229
443	H	0.005088	0.273148	0.620271
444	C	0.112715	0.313645	0.400176
445	O	0.140293	0.291508	0.405853
446	O	0.104341	0.334139	0.433014
447	H	0.083279	0.34907	0.435258
448	C	0.932076	0.670905	0.340021
449	N	0.961452	0.684779	0.646741
450	C	0.972677	0.723069	0.644695
451	C	0.952427	0.751155	0.337156
452	N	0.923737	0.737128	0.364367
453	C	0.912582	0.69885	0.36751
454	H	0.994577	0.731086	0.623187
455	C	0.88474	0.689353	0.399663
456	O	0.857005	0.711376	0.404877
457	O	0.892921	0.66922	0.432863
458	H	0.914039	0.654422	0.435553
459	C	0.669027	0.069015	0.340011
460	N	0.682226	0.039812	0.64605
461	C	0.720191	0.028392	0.643453
462	C	0.748617	0.048329	0.335928
463	N	0.735239	0.076798	0.363813
464	C	0.697317	0.08807	0.367581
465	H	0.727757	0.006649	0.621513
466	C	0.688511	0.115608	0.400384
467	O	0.710709	0.143462	0.405538
468	O	0.668125	0.107148	0.433275
469	H	0.653158	0.085928	0.43562
470	C	0.330356	0.934862	0.340299
471	N	0.316777	0.964547	0.647285
472	C	0.278752	0.975823	0.645265
473	C	0.25055	0.955309	0.337481
474	N	0.264288	0.926307	0.364424
475	C	0.302291	0.915093	0.367547
476	H	0.271003	0.997926	0.623888
477	C	0.311363	0.886914	0.399502
478	O	0.289204	0.858975	0.404326
479	O	0.331411	0.894872	0.432839
480	H	0.346322	0.916074	0.435788
481	C	0.432961	0.833274	0.66846
482	N	0.412062	0.808279	0.36168
483	C	0.418754	0.769174	0.364984
484	C	0.449465	0.752476	0.673285
485	N	0.470033	0.777297	0.646379
486	C	0.463681	0.816581	0.642658
487	H	0.401802	0.752669	0.386086
488	C	0.48511	0.837019	0.610713
489	O	0.520126	0.830382	0.608258
490	O	0.470017	0.848589	0.575484
491	H	0.444581	0.851733	0.571203
492	C	0.569061	0.172932	0.664438
493	N	0.540108	0.186481	0.358325
494	C	0.529064	0.224656	0.360777
495	C	0.548973	0.252899	0.667944
496	N	0.577357	0.239198	0.64027
497	C	0.588469	0.201041	0.636911
498	H	0.507451	0.232432	0.382674
499	C	0.61596	0.191795	0.604363
500	O	0.644012	0.21373	0.599535
501	O	0.607354	0.171691	0.57123
502	H	0.586027	0.156978	0.568647
503	C	0.83025	0.56789	0.666699
504	N	0.805167	0.589679	0.35858
505	C	0.76599	0.583734	0.360636
506	C	0.749163	0.552898	0.66885
507	N	0.774075	0.531365	0.643329
508	C	0.813452	0.53694	0.640944
509	H	0.749496	0.601386	0.380816
510	C	0.833945	0.514535	0.61015
511	O	0.826773	0.479398	0.608026
512	O	0.846697	0.529019	0.574998
513	H	0.850487	0.554457	0.570271
514	C	0.169606	0.434166	0.665703
515	N	0.183192	0.462219	0.361062
516	C	0.221396	0.47267	0.364816
517	C	0.249514	0.452921	0.672
518	N	0.235803	0.425502	0.642823
519	C	0.197621	0.415131	0.638029
520	H	0.22927	0.493639	0.387676
521	C	0.188316	0.388554	0.604292
522	O	0.209752	0.360393	0.598589
523	O	0.16869	0.398286	0.571317
524	H	0.154416	0.419875	0.569395
525	C	0.092116	0.115547	0.347475
526	N	0.115609	0.107813	0.645
527	C	0.140417	0.076751	0.642953
528	C	0.140085	0.049255	0.344972
529	N	0.116344	0.056989	0.380383
530	C	0.093249	0.089111	0.384335
531	H	0.155385	0.071412	0.613914
532	C	0.070296	0.092872	0.422584
533	O	0.057662	0.063281	0.440851
534	O	0.071922	0.122242	0.446906
535	H	0.083518	0.144708	0.439744
536	C	0.906941	0.888396	0.34931
537	N	0.883582	0.895231	0.646463
538	C	0.858811	0.92624	0.643222
539	C	0.858926	0.954545	0.344369
540	N	0.882507	0.947741	0.380161
541	C	0.905637	0.915777	0.385257
542	H	0.843889	0.930761	0.613961
543	C	0.928366	0.913006	0.423798
544	O	0.940949	0.943052	0.441122
545	O	0.926662	0.884257	0.44906
546	H	0.915131	0.861606	0.442552
547	C	0.885629	0.094433	0.346381
548	N	0.893599	0.117181	0.643215
549	C	0.925154	0.14149	0.640216
550	C	0.952746	0.141388	0.34199
551	N	0.94479	0.11845	0.378142
552	C	0.912267	0.095857	0.382956
553	H	0.93045	0.156193	0.610911
554	C	0.908241	0.073636	0.421859
555	O	0.937511	0.060408	0.43975
556	O	0.879152	0.076095	0.446282
557	H	0.857112	0.088125	0.439076
558	C	0.113518	0.909319	0.35024
559	N	0.105679	0.886133	0.647382
560	C	0.07422	0.861676	0.64454
561	C	0.046353	0.862248	0.346029
562	N	0.054127	0.885652	0.381849
563	C	0.086617	0.908312	0.386573
564	H	0.06898	0.846872	0.615293
565	C	0.09044	0.930975	0.425153
566	O	0.061074	0.943898	0.443142
567	O	0.119367	0.928765	0.449872
568	H	0.141553	0.916907	0.442887
569	C	0.406904	0.613798	0.663921
570	N	0.384427	0.60569	0.367182
571	C	0.360265	0.573988	0.370114
572	C	0.360076	0.546636	0.667991
573	N	0.382634	0.554783	0.631691
574	C	0.405214	0.587371	0.627052
575	H	0.345761	0.568472	0.399459
576	C	0.426846	0.591822	0.587847
577	O	0.439586	0.56248	0.569395
578	O	0.423593	0.620905	0.56337
579	H	0.411719	0.643014	0.570928
580	C	0.592725	0.390777	0.652146
581	N	0.61711	0.398354	0.353916
582	C	0.641511	0.429941	0.355882
583	C	0.639645	0.458179	0.654719
584	N	0.615126	0.450608	0.619922
585	C	0.592499	0.417943	0.615937
586	H	0.657194	0.435049	0.384513
587	C	0.568726	0.414265	0.578295
588	O	0.554877	0.44383	0.561471
589	O	0.569916	0.385178	0.553527
590	H	0.582113	0.362947	0.55981
591	C	0.612062	0.597908	0.655793
592	N	0.604189	0.620095	0.359368
593	C	0.572832	0.644294	0.36276
594	C	0.545331	0.644687	0.660895
595	N	0.553066	0.622203	0.624391
596	C	0.585474	0.59981	0.619198
597	H	0.567471	0.658241	0.392504
598	C	0.589408	0.578189	0.579879
599	O	0.560111	0.565571	0.561216
600	O	0.618699	0.580658	0.555737
601	H	0.640923	0.59235	0.56335
602	C	0.386071	0.407231	0.660077
603	N	0.395214	0.38428	0.362629
604	C	0.427103	0.360639	0.364229
605	C	0.453872	0.361907	0.661653
606	N	0.444782	0.385084	0.626136
607	C	0.41186	0.406943	0.622694
608	H	0.433304	0.345744	0.393138
609	C	0.406745	0.429786	0.584465
610	O	0.435465	0.443974	0.566094
611	O	0.377185	0.427114	0.560797
612	H	0.35545	0.414476	0.568318
613	C	0.07714	0.373433	0.670644
614	C	0.116931	0.384623	0.668816
615	C	0.129023	0.424314	0.66729
616	C	0.099867	0.453564	0.66886
617	C	0.059545	0.443868	0.669202
618	C	0.048828	0.40357	0.669125
619	H	0.10821	0.482469	0.667434
620	H	0.019821	0.395999	0.670359
621	H	0.137788	0.363202	0.668695
622	C	0.9219	0.630156	0.670608
623	C	0.882248	0.618316	0.668373
624	C	0.870819	0.5784	0.667545
625	C	0.900733	0.549913	0.66846
626	C	0.940906	0.56007	0.666984
627	C	0.950794	0.600529	0.668742
628	H	0.893003	0.520967	0.671168
629	H	0.979673	0.60862	0.669027
630	H	0.861027	0.639371	0.666558
631	C	0.628719	0.079929	0.670775
632	C	0.618051	0.119949	0.668665
633	C	0.578691	0.132207	0.666709
634	C	0.549245	0.102981	0.668266
635	C	0.558394	0.062473	0.669041
636	C	0.598363	0.051567	0.669266
637	H	0.520576	0.111382	0.66637
638	H	0.605499	0.022403	0.670718
639	H	0.639618	0.140845	0.668588
640	C	0.370926	0.92481	0.67099
641	C	0.382617	0.885009	0.669266
642	C	0.422325	0.87383	0.668598
643	C	0.450769	0.904017	0.669245
644	C	0.440804	0.944259	0.667102
645	C	0.400563	0.953991	0.668752
646	H	0.479557	0.896434	0.672131
647	H	0.392675	0.982971	0.668675
648	H	0.36167	0.863479	0.667669
649	C	0.0618	0.143486	0.67514
650	C	0.022665	0.130325	0.674757
651	C	0.991105	0.156655	0.671148
652	C	0.999191	0.197181	0.666823
653	C	0.038169	0.211567	0.667672
654	C	0.069153	0.18416	0.671527
655	H	0.97632	0.216477	0.666179
656	H	0.097526	0.193897	0.672661
657	H	0.017006	0.100787	0.677458
658	C	0.937271	0.860326	0.677978
659	C	0.97645	0.873372	0.678193
660	C	0.007988	0.846983	0.675009
661	C	0.999816	0.806486	0.67047
662	C	0.960787	0.792186	0.670604
663	C	0.929851	0.819679	0.674073
664	H	0.022641	0.787134	0.669896
665	H	0.901433	0.810035	0.674533
666	H	0.982158	0.902904	0.680779
667	C	0.857402	0.063997	0.674976
668	C	0.870198	0.02472	0.675137
669	C	0.843745	0.992897	0.672718
670	C	0.80342	0.000894	0.668615
671	C	0.789402	0.040056	0.668648
672	C	0.816954	0.071281	0.671634
673	H	0.784018	0.977893	0.668568
674	H	0.807513	0.099791	0.672235
675	H	0.899594	0.019154	0.677535
676	C	0.141725	0.939729	0.678404
677	C	0.128916	0.979002	0.677998
678	C	0.155315	0.010797	0.674573
679	C	0.195609	0.002734	0.670205
680	C	0.209706	0.963587	0.670869
681	C	0.182157	0.932419	0.674721
682	H	0.214955	0.025765	0.669353
683	H	0.191584	0.903911	0.675569
684	H	0.099527	0.984589	0.680431
685	C	0.436576	0.642756	0.668128
686	C	0.475995	0.631069	0.665709
687	C	0.506803	0.658676	0.666266
688	C	0.49767	0.698915	0.669769
689	C	0.458341	0.711691	0.673057
690	C	0.428095	0.683041	0.672765
691	H	0.519984	0.719094	0.669282
692	H	0.399438	0.691617	0.672896
693	H	0.482385	0.60173	0.663062
694	C	0.56288	0.362183	0.658349
695	C	0.523613	0.374493	0.659664
696	C	0.492492	0.34752	0.664488
697	C	0.50118	0.307269	0.669279
698	C	0.540313	0.293742	0.667716
699	C	0.570857	0.321756	0.662593
700	H	0.478562	0.287505	0.670866
701	H	0.599337	0.312656	0.66108
702	H	0.517521	0.403887	0.656963
703	C	0.640314	0.567726	0.660083
704	C	0.627818	0.528274	0.65754
705	C	0.654463	0.496848	0.659178
706	C	0.694629	0.505458	0.664019
707	C	0.708298	0.544772	0.667249
708	C	0.680532	0.575597	0.665877
709	H	0.714138	0.482718	0.664552
710	H	0.689765	0.604249	0.666286
711	H	0.598502	0.522291	0.654494
712	C	0.358093	0.43731	0.666431
713	C	0.371239	0.476559	0.668101
714	C	0.344961	0.508147	0.671812
715	C	0.304598	0.50003	0.675184
716	C	0.29033	0.460901	0.673312
717	C	0.317585	0.429803	0.669084
718	H	0.285405	0.523028	0.675834
719	H	0.307893	0.401342	0.667004
720	H	0.400665	0.482307	0.665827
721	C	0.970446	0.530341	0.998598
722	N	0.003222	0.535319	0.690663
723	C	0.032972	0.509139	0.693068
724	C	0.03036	0.473668	0.002053
725	N	0.998002	0.468944	0.976154
726	C	0.968174	0.495121	0.972889
727	H	0.056154	0.515052	0.713664
728	C	0.939085	0.487037	0.941767
729	O	0.926521	0.453462	0.939156
730	O	0.935641	0.506615	0.907064
731	H	0.945886	0.530267	0.902706
732	C	0.470695	0.973859	0.99837
733	N	0.466331	0.006774	0.690495
734	C	0.49299	0.036366	0.692937
735	C	0.528269	0.033382	0.001946
736	N	0.532377	0.000882	0.975993
737	C	0.505729	0.971208	0.972692
738	H	0.487539	0.059729	0.713503
739	C	0.5133	0.941858	0.941602
740	O	0.54646	0.928826	0.939378
741	O	0.493492	0.938255	0.907145
742	H	0.470142	0.948783	0.902827
743	C	0.066452	0.332812	0.67301
744	N	0.037655	0.319261	0.9787
745	C	0.026498	0.280978	0.975832
746	C	0.046352	0.252615	0.668313
747	N	0.074441	0.26634	0.696504
748	C	0.085445	0.304571	0.70056
749	H	0.005088	0.273148	0.953606
750	C	0.112715	0.313645	0.733508
751	O	0.140293	0.291508	0.739187
752	O	0.104341	0.334139	0.766345
753	H	0.083279	0.34907	0.768589
754	C	0.932076	0.670905	0.673352
755	N	0.961452	0.684779	0.980072
756	C	0.972677	0.723069	0.978029
757	C	0.952427	0.751155	0.670487
758	N	0.923737	0.737128	0.697698
759	C	0.912582	0.69885	0.700841
760	H	0.994577	0.731086	0.956521
761	C	0.88474	0.689353	0.732994
762	O	0.857005	0.711376	0.738211
763	O	0.892921	0.66922	0.766197
764	H	0.914039	0.654422	0.768888
765	C	0.669027	0.069015	0.673342
766	N	0.682226	0.039812	0.979381
767	C	0.720191	0.028392	0.976788
768	C	0.748617	0.048329	0.669262
769	N	0.735239	0.076798	0.697148
770	C	0.697317	0.08807	0.700915
771	H	0.727757	0.006649	0.954844
772	C	0.688511	0.115608	0.733719
773	O	0.710709	0.143462	0.738872
774	O	0.668125	0.107148	0.76661
775	H	0.653158	0.085928	0.768955
776	C	0.330356	0.934862	0.673634
777	N	0.316777	0.964547	0.980619
778	C	0.278752	0.975823	0.978599
779	C	0.25055	0.955309	0.670812
780	N	0.264288	0.926307	0.697755
781	C	0.302291	0.915093	0.700882
782	H	0.271003	0.997926	0.957222
783	C	0.311363	0.886914	0.732837
784	O	0.289204	0.858975	0.737658
785	O	0.331411	0.894872	0.76617
786	H	0.346322	0.916074	0.769119
787	C	0.432961	0.833274	0.001792
788	N	0.412062	0.808279	0.695011
789	C	0.418754	0.769174	0.698319
790	C	0.449465	0.752476	0.006619
791	N	0.470033	0.777297	0.979713
792	C	0.463681	0.816581	0.975989
793	H	0.401802	0.752669	0.719421
794	C	0.48511	0.837019	0.944048
795	O	0.520126	0.830382	0.941592
796	O	0.470017	0.848589	0.908819
797	H	0.444581	0.851733	0.904538
798	C	0.569061	0.172932	0.997772
799	N	0.540108	0.186481	0.691656
800	C	0.529064	0.224656	0.694112
801	C	0.548973	0.252899	0.001278
802	N	0.577357	0.239198	0.973601
803	C	0.588469	0.201041	0.970243
804	H	0.507451	0.232432	0.716009
805	C	0.61596	0.191795	0.937697
806	O	0.644012	0.21373	0.93287
807	O	0.607354	0.171691	0.904561
808	H	0.586027	0.156978	0.901981
809	C	0.83025	0.56789	3.4e-05
810	N	0.805167	0.589679	0.691914
811	C	0.76599	0.583734	0.693971
812	C	0.749163	0.552898	0.002181
813	N	0.774075	0.531365	0.976664
814	C	0.813452	0.53694	0.974278
815	H	0.749496	0.601386	0.714147
816	C	0.833945	0.514535	0.943481
817	O	0.826773	0.479398	0.941357
818	O	0.846697	0.529019	0.908332
819	H	0.850487	0.554457	0.903605
820	C	0.169606	0.434166	0.999037
821	N	0.183192	0.462219	0.694397
822	C	0.221396	0.47267	0.698151
823	C	0.249514	0.452921	0.005334
824	N	0.235803	0.425502	0.976154
825	C	0.197621	0.415131	0.971363
826	H	0.22927	0.493639	0.721011
827	C	0.188316	0.388554	0.937627
828	O	0.209752	0.360393	0.93192
829	O	0.16869	0.398286	0.904649
830	H	0.154416	0.419875	0.902726
831	C	0.092116	0.115547	0.680806
832	N	0.115609	0.107813	0.978331
833	C	0.140417	0.076751	0.976288
834	C	0.140085	0.049255	0.678304
835	N	0.116344	0.056989	0.713717
836	C	0.093249	0.089111	0.717666
837	H	0.155385	0.071412	0.947245
838	C	0.070296	0.092872	0.755918
839	O	0.057662	0.063281	0.774182
840	O	0.071922	0.122242	0.780241
841	H	0.083518	0.144708	0.773078
842	C	0.906941	0.888396	0.682645
843	N	0.883582	0.895231	0.979797
844	C	0.858811	0.92624	0.976553
845	C	0.858926	0.954545	0.677703
846	N	0.882507	0.947741	0.713496
847	C	0.905637	0.915777	0.718592
848	H	0.843889	0.930761	0.947295
849	C	0.928366	0.913006	0.757132
850	O	0.940949	0.943052	0.774454
851	O	0.926662	0.884257	0.782394
852	H	0.915131	0.861606	0.775883
853	C	0.885629	0.094433	0.679713
854	N	0.893599	0.117181	0.97655
855	C	0.925154	0.14149	0.97355
856	C	0.952746	0.141388	0.675321
857	N	0.94479	0.11845	0.711476
858	C	0.912267	0.095857	0.716287
859	H	0.93045	0.156193	0.944246
860	C	0.908241	0.073636	0.755193
861	O	0.937511	0.060408	0.773085
862	O	0.879152	0.076095	0.779613
863	H	0.857112	0.088125	0.77241
864	C	0.113518	0.909319	0.683571
865	N	0.105679	0.886133	0.980716
866	C	0.07422	0.861676	0.977871
867	C	0.046353	0.862248	0.67936
868	N	0.054127	0.885652	0.71518
869	C	0.086617	0.908312	0.719907
870	H	0.06898	0.846872	0.948624
871	C	0.09044	0.930975	0.758488
872	O	0.061074	0.943898	0.776473
873	O	0.119367	0.928765	0.783203
874	H	0.141553	0.916907	0.776218
875	C	0.406904	0.613798	0.997256
876	N	0.384427	0.60569	0.700516
877	C	0.360265	0.573988	0.703445
878	C	0.360076	0.546636	0.001325
879	N	0.382634	0.554783	0.965022
880	C	0.405214	0.587371	0.960383
881	H	0.345761	0.568472	0.732793
882	C	0.426846	0.591822	0.921178
883	O	0.439586	0.56248	0.902726
884	O	0.423593	0.620905	0.896704
885	H	0.411719	0.643014	0.904259
886	C	0.592725	0.390777	0.985477
887	N	0.61711	0.398354	0.687251
888	C	0.641511	0.429941	0.689217
889	C	0.639645	0.458179	0.988053
890	N	0.615126	0.450608	0.953257
891	C	0.592499	0.417943	0.949271
892	H	0.657194	0.435049	0.717847
893	C	0.568726	0.414265	0.91163
894	O	0.554877	0.44383	0.894805
895	O	0.569916	0.385178	0.886861
896	H	0.582113	0.362947	0.893145
897	C	0.612062	0.597908	0.989124
898	N	0.604189	0.620095	0.692699
899	C	0.572832	0.644294	0.696094
900	C	0.545331	0.644687	0.994226
901	N	0.553066	0.622203	0.957726
902	C	0.585474	0.59981	0.952529
903	H	0.567471	0.658241	0.725835
904	C	0.589408	0.578189	0.913213
905	O	0.560111	0.565571	0.89455
906	O	0.618699	0.580658	0.889072
907	H	0.640923	0.59235	0.896684
908	C	0.386071	0.407231	0.993411
909	N	0.395214	0.38428	0.695963
910	C	0.427103	0.360639	0.697564
911	C	0.453872	0.361907	0.994985
912	N	0.444782	0.385084	0.959467
913	C	0.41186	0.406943	0.956028
914	H	0.433304	0.345744	0.726472
915	C	0.406745	0.429786	0.9178
916	O	0.435465	0.443974	0.899428
917	O	0.377185	0.427114	0.894128
918	H	0.35545	0.414476	0.901653
