data_C432H72N360O144_2018-02-15_10:38:03
#******************************************
#
# CIF file created by Zeo++
# Zeo++ is an open source package to
# analyze microporous materials
#
#*******************************************

_cell_length_a		44.692   
_cell_length_b		44.6966   
_cell_length_c		29.6506   
_cell_angle_alpha		90   
_cell_angle_beta		90   
_cell_angle_gamma		120.01   

_symmetry_space_group_name_H-M		'P1'
_symmetry_Int_Tables_number		1
_symmetry_cell_setting		Monoclinic

loop_
_symmetry_equiv_pos_as_xyz
'+x,+y,+z'

loop_
_atom_site_label
_atom_site_type_symbol
_atom_site_fract_x
_atom_site_fract_y
_atom_site_fract_z
1	N	0.024933	0.039158	0.994874
2	C	0.041981	0.021014	0.994831
3	N	0.02218	0.485915	0.994895
4	C	0.078902	0.03862	0.328402
5	N	0.096451	0.07376	0.998422
6	C	0.09938	0.022536	0.325459
7	N	0.084636	0.986484	0.321014
8	O	0.093641	0.97448	0.353201
9	O	0.094281	0.979271	0.284874
10	N	0.024933	0.039158	0.328209
11	C	0.041981	0.021014	0.328164
12	N	0.02218	0.485915	0.328229
13	C	0.078902	0.03862	0.661734
14	N	0.096451	0.07376	0.331758
15	C	0.09938	0.022536	0.658793
16	N	0.084636	0.986484	0.654348
17	O	0.093641	0.97448	0.686533
18	O	0.094281	0.979271	0.618207
19	N	0.024933	0.039158	0.661542
20	C	0.041981	0.021014	0.661498
21	N	0.02218	0.485915	0.661562
22	C	0.078902	0.03862	0.995067
23	N	0.096451	0.07376	0.66509
24	C	0.09938	0.022536	0.992126
25	N	0.084636	0.986484	0.987681
26	O	0.093641	0.97448	0.019867
27	O	0.094281	0.979271	0.95154
28	N	0.024933	0.539157	0.994874
29	C	0.041982	0.521014	0.994831
30	N	0.022178	0.985913	0.994895
31	C	0.078902	0.538619	0.328402
32	N	0.096451	0.57376	0.998422
33	C	0.09938	0.522536	0.32546
34	N	0.084635	0.486483	0.321016
35	O	0.093641	0.474482	0.353204
36	O	0.094281	0.47927	0.284876
37	N	0.024933	0.539157	0.328209
38	C	0.041982	0.521014	0.328164
39	N	0.022178	0.985913	0.328229
40	C	0.078902	0.538619	0.661734
41	N	0.096451	0.57376	0.331757
42	C	0.09938	0.522536	0.658793
43	N	0.084635	0.486483	0.654348
44	O	0.093641	0.474482	0.686536
45	O	0.094281	0.47927	0.618211
46	N	0.024933	0.539157	0.661542
47	C	0.041982	0.521014	0.661498
48	N	0.022178	0.985913	0.661562
49	C	0.078902	0.538619	0.995067
50	N	0.096451	0.57376	0.66509
51	C	0.09938	0.522536	0.992126
52	N	0.084635	0.486483	0.987681
53	O	0.093641	0.474482	0.01987
54	O	0.094281	0.47927	0.951543
55	N	0.024379	0.101039	0.320915
56	O	0.036396	0.122057	0.353093
57	O	0.031586	0.117892	0.28477
58	N	0.024379	0.101039	0.654247
59	O	0.036396	0.122057	0.686425
60	O	0.031586	0.117892	0.618103
61	N	0.024379	0.101039	0.987583
62	O	0.036396	0.122057	0.01976
63	O	0.031586	0.117892	0.951435
64	N	0.02438	0.601038	0.320914
65	O	0.036397	0.622057	0.353093
66	O	0.031586	0.617892	0.284768
67	N	0.02438	0.601038	0.654247
68	O	0.036397	0.622057	0.686425
69	O	0.031586	0.617892	0.618103
70	N	0.02438	0.601038	0.987579
71	O	0.036397	0.622057	0.019759
72	O	0.031586	0.617892	0.951435
73	C	0.188775	0.096508	0.997606
74	C	0.131432	0.093799	0.999229
75	C	0.151972	0.078014	0.329945
76	N	0.134521	0.042961	0.32645
77	H	0.14221	0.119982	0.001991
78	C	0.188775	0.096508	0.33094
79	C	0.131432	0.093799	0.332563
80	C	0.151972	0.078014	0.663279
81	N	0.134521	0.042961	0.659781
82	H	0.14221	0.119982	0.335326
83	C	0.188775	0.096508	0.664274
84	C	0.131432	0.093799	0.665896
85	C	0.151972	0.078014	0.996611
86	N	0.134521	0.042961	0.993117
87	H	0.14221	0.119982	0.668658
88	C	0.188774	0.596507	0.997606
89	C	0.131432	0.593799	0.999229
90	C	0.151971	0.578013	0.329945
91	N	0.13452	0.54296	0.326451
92	H	0.14221	0.619982	0.001991
93	C	0.188774	0.596507	0.33094
94	C	0.131432	0.593799	0.332563
95	C	0.151971	0.578013	0.663279
96	N	0.13452	0.54296	0.659785
97	H	0.14221	0.619982	0.335325
98	C	0.188774	0.596507	0.664274
99	C	0.131432	0.593799	0.665896
100	C	0.151971	0.578013	0.996611
101	N	0.13452	0.54296	0.993117
102	H	0.14221	0.619982	0.668658
103	C	0.242288	0.149341	0.000406
104	N	0.207154	0.131854	0.999026
105	N	0.206669	0.079031	0.997826
106	C	0.241796	0.096145	0.999461
107	N	0.258919	0.13106	0.000864
108	C	0.262526	0.0807	0.000787
109	C	0.263513	0.185493	0.00281
110	O	0.244301	0.185856	0.098625
111	C	0.242288	0.149341	0.333741
112	N	0.207154	0.131854	0.332361
113	N	0.206669	0.079031	0.331159
114	C	0.241796	0.096145	0.332794
115	N	0.258919	0.13106	0.334198
116	C	0.262526	0.0807	0.334121
117	C	0.263513	0.185493	0.336146
118	O	0.244301	0.185856	0.431958
119	C	0.242288	0.149341	0.667073
120	N	0.207154	0.131854	0.665694
121	N	0.206669	0.079031	0.664493
122	C	0.241796	0.096145	0.666129
123	N	0.258919	0.13106	0.667532
124	C	0.262526	0.0807	0.667454
125	C	0.263513	0.185493	0.669478
126	O	0.244301	0.185856	0.76529
127	C	0.242288	0.64934	0.000406
128	N	0.207154	0.631854	0.999026
129	N	0.206669	0.579031	0.997826
130	C	0.241796	0.596145	0.999461
131	N	0.25892	0.631061	0.000864
132	C	0.262527	0.5807	0.000787
133	C	0.263514	0.685494	0.00281
134	O	0.244301	0.685855	0.098625
135	C	0.242288	0.64934	0.333741
136	N	0.207154	0.631854	0.332361
137	N	0.206669	0.579031	0.331159
138	C	0.241796	0.596145	0.332795
139	N	0.25892	0.631061	0.334198
140	C	0.262527	0.5807	0.334121
141	C	0.263514	0.685494	0.336146
142	O	0.244301	0.685855	0.431958
143	C	0.242288	0.64934	0.667073
144	N	0.207154	0.631854	0.665694
145	N	0.206669	0.579031	0.664493
146	C	0.241796	0.596145	0.666129
147	N	0.25892	0.631061	0.667532
148	C	0.262527	0.5807	0.667454
149	C	0.263514	0.685494	0.669478
150	O	0.244301	0.685855	0.76529
151	C	0.486983	0.468865	0.994821
152	N	0.47168	0.488659	0.994868
153	C	0.489831	0.023853	0.9948
154	C	0.361581	0.095883	0.000773
155	N	0.379028	0.078207	0.999164
156	C	0.414377	0.095157	0.997633
157	N	0.431896	0.130533	0.997893
158	C	0.414818	0.148569	0.99968
159	N	0.379908	0.130796	0.001218
160	C	0.41493	0.268581	0.000733
161	N	0.4326	0.303706	0.999202
162	C	0.415645	0.322092	0.997657
163	N	0.380266	0.30421	0.997822
164	C	0.362232	0.269087	0.999508
165	N	0.380009	0.251963	0.00107
166	C	0.47223	0.043163	0.328346
167	N	0.437087	0.025569	0.998385
168	C	0.417052	0.040509	0.999181
169	C	0.43285	0.076838	0.329892
170	N	0.467906	0.094441	0.326379
171	C	0.488325	0.079727	0.325377
172	H	0.390867	0.025105	0.001994
173	N	0.524379	0.101039	0.320915
174	O	0.536398	0.122057	0.353093
175	O	0.531587	0.117892	0.28477
176	C	0.467659	0.431947	0.328386
177	N	0.485249	0.414404	0.99846
178	C	0.470299	0.379426	0.999272
179	C	0.433968	0.358888	0.329949
180	N	0.416368	0.376336	0.326402
181	C	0.431092	0.411471	0.325394
182	H	0.4857	0.368649	0.002092
183	N	0.409787	0.426214	0.320901
184	O	0.388754	0.417212	0.353062
185	O	0.392946	0.416561	0.284744
186	C	0.325428	0.08103	0.003174
187	N	0.30907	0.079149	0.297026
188	C	0.277832	0.077278	0.294331
189	N	0.280081	0.084701	0.039845
190	C	0.309868	0.083481	0.043684
191	H	0.268561	0.07857	0.263281
192	N	0.32765	0.09041	0.085379
193	O	0.315439	0.100773	0.115871
194	O	0.325522	0.062953	0.099567
195	C	0.429793	0.247314	0.003127
196	N	0.431733	0.232752	0.297088
197	C	0.433676	0.203427	0.294515
198	C	0.430255	0.184731	0.001016
199	N	0.426247	0.198403	0.03996
200	C	0.427419	0.229389	0.043698
201	H	0.432413	0.192837	0.263492
202	N	0.420479	0.240243	0.085381
203	O	0.410162	0.217703	0.11592
204	O	0.447918	0.265628	0.099523
205	N	0.278427	0.201622	0.296695
206	C	0.307721	0.232928	0.294039
207	C	0.326034	0.248338	0.000739
208	N	0.312134	0.23107	0.039837
209	C	0.281073	0.201299	0.043463
210	H	0.318726	0.241851	0.263098
211	N	0.269814	0.183726	0.085238
212	O	0.292066	0.19613	0.116111
213	C	0.486983	0.468865	0.328154
214	N	0.47168	0.488659	0.3282
215	C	0.489831	0.023853	0.328134
216	C	0.361581	0.095883	0.334107
217	N	0.379028	0.078207	0.332499
218	C	0.414377	0.095157	0.330969
219	N	0.431896	0.130533	0.331225
220	C	0.414818	0.148569	0.333013
221	N	0.379908	0.130796	0.334554
222	C	0.41493	0.268581	0.334067
223	N	0.4326	0.303706	0.332535
224	C	0.415645	0.322092	0.330991
225	N	0.380266	0.30421	0.331156
226	C	0.362232	0.269087	0.332843
227	N	0.380009	0.251963	0.334405
228	C	0.47223	0.043163	0.66168
229	N	0.437087	0.025569	0.33172
230	C	0.417052	0.040509	0.332516
231	C	0.43285	0.076838	0.663225
232	N	0.467906	0.094441	0.659711
233	C	0.488325	0.079727	0.658709
234	H	0.390867	0.025105	0.335326
235	N	0.524379	0.101039	0.654247
236	O	0.536398	0.122057	0.686425
237	O	0.531587	0.117892	0.618103
238	C	0.467659	0.431947	0.661717
239	N	0.485249	0.414404	0.331794
240	C	0.470299	0.379426	0.332605
241	C	0.433968	0.358888	0.663282
242	N	0.416368	0.376336	0.659734
243	C	0.431092	0.411471	0.658726
244	H	0.4857	0.368649	0.335426
245	N	0.409787	0.426214	0.654234
246	O	0.388754	0.417212	0.686395
247	O	0.392946	0.416561	0.618076
248	C	0.325428	0.08103	0.336508
249	N	0.30907	0.079149	0.630359
250	C	0.277832	0.077278	0.627664
251	N	0.280081	0.084701	0.373177
252	C	0.309868	0.083481	0.377018
253	H	0.268561	0.07857	0.596612
254	N	0.32765	0.09041	0.41871
255	O	0.315439	0.100773	0.449202
256	O	0.325522	0.062953	0.432899
257	C	0.429793	0.247314	0.336462
258	N	0.431733	0.232752	0.630419
259	C	0.433676	0.203427	0.62785
260	C	0.430255	0.184731	0.33435
261	N	0.426247	0.198403	0.373295
262	C	0.427419	0.229389	0.377031
263	H	0.432413	0.192837	0.596825
264	N	0.420479	0.240243	0.418714
265	O	0.410162	0.217703	0.449253
266	O	0.447918	0.265628	0.432855
267	N	0.278427	0.201622	0.630028
268	C	0.307721	0.232928	0.627371
269	C	0.326034	0.248338	0.334072
270	N	0.312134	0.23107	0.37317
271	C	0.281073	0.201299	0.376795
272	H	0.318726	0.241851	0.59643
273	N	0.269814	0.183726	0.418572
274	O	0.292066	0.19613	0.449445
275	C	0.486983	0.468865	0.661488
276	N	0.47168	0.488659	0.661532
277	C	0.489831	0.023853	0.661468
278	C	0.361581	0.095883	0.667441
279	N	0.379028	0.078207	0.665832
280	C	0.414377	0.095157	0.664301
281	N	0.431896	0.130533	0.664557
282	C	0.414818	0.148569	0.666345
283	N	0.379908	0.130796	0.667886
284	C	0.41493	0.268581	0.6674
285	N	0.4326	0.303706	0.665869
286	C	0.415645	0.322092	0.664324
287	N	0.380266	0.30421	0.66449
288	C	0.362232	0.269087	0.666176
289	N	0.380009	0.251963	0.667737
290	C	0.47223	0.043163	0.995013
291	N	0.437087	0.025569	0.665053
292	C	0.417052	0.040509	0.665849
293	C	0.43285	0.076838	0.996557
294	N	0.467906	0.094441	0.993043
295	C	0.488325	0.079727	0.992045
296	H	0.390867	0.025105	0.668658
297	N	0.524379	0.101039	0.987583
298	O	0.536398	0.122057	0.01976
299	O	0.531587	0.117892	0.951435
300	C	0.467659	0.431947	0.995053
301	N	0.485249	0.414404	0.665127
302	C	0.470299	0.379426	0.665936
303	C	0.433968	0.358888	0.996615
304	N	0.416368	0.376336	0.99307
305	C	0.431092	0.411471	0.992062
306	H	0.4857	0.368649	0.668759
307	N	0.409787	0.426214	0.987566
308	O	0.388754	0.417212	0.01973
309	O	0.392946	0.416561	0.951412
310	C	0.325428	0.08103	0.669842
311	N	0.30907	0.079149	0.963691
312	C	0.277832	0.077278	0.960997
313	N	0.280081	0.084701	0.706512
314	C	0.309868	0.083481	0.71035
315	H	0.268561	0.07857	0.929948
316	N	0.32765	0.09041	0.752046
317	O	0.315439	0.100773	0.782538
318	O	0.325522	0.062953	0.766231
319	C	0.429793	0.247314	0.669795
320	N	0.431733	0.232752	0.963755
321	C	0.433676	0.203427	0.961182
322	C	0.430255	0.184731	0.667684
323	N	0.426247	0.198403	0.706627
324	C	0.427419	0.229389	0.710364
325	H	0.432413	0.192837	0.930157
326	N	0.420479	0.240243	0.752046
327	O	0.410162	0.217703	0.782585
328	O	0.447918	0.265628	0.766188
329	N	0.278427	0.201622	0.963361
330	C	0.307721	0.232928	0.960706
331	C	0.326034	0.248338	0.667404
332	N	0.312134	0.23107	0.706502
333	C	0.281073	0.201299	0.710128
334	H	0.318726	0.241851	0.929766
335	N	0.269814	0.183726	0.751904
336	O	0.292066	0.19613	0.782777
337	C	0.486981	0.968864	0.994821
338	N	0.47168	0.988657	0.994868
339	C	0.489833	0.523854	0.9948
340	C	0.361582	0.595884	0.000773
341	N	0.379028	0.578206	0.999164
342	C	0.414378	0.595158	0.997633
343	N	0.431896	0.630534	0.99789
344	C	0.414818	0.648568	0.99968
345	N	0.379907	0.630795	0.001218
346	C	0.414929	0.768579	0.000733
347	N	0.432601	0.803707	0.999202
348	C	0.415644	0.82209	0.997657
349	N	0.380264	0.804208	0.997822
350	C	0.362232	0.769088	0.999508
351	N	0.38001	0.751964	0.00107
352	C	0.47223	0.543164	0.328345
353	N	0.437087	0.525569	0.998385
354	C	0.417053	0.54051	0.999181
355	C	0.43285	0.576837	0.329892
356	N	0.467905	0.59444	0.326378
357	C	0.488325	0.579728	0.325376
358	H	0.390869	0.525107	0.001994
359	N	0.52438	0.601038	0.320914
360	O	0.536397	0.622057	0.353093
361	O	0.531587	0.617892	0.284768
362	C	0.46766	0.931948	0.328386
363	N	0.485248	0.914402	0.99846
364	C	0.470298	0.879424	0.999272
365	C	0.433966	0.858887	0.329949
366	N	0.41637	0.876337	0.326402
367	C	0.431092	0.911472	0.325394
368	H	0.485699	0.868648	0.002092
369	N	0.409787	0.926212	0.320901
370	O	0.388754	0.917211	0.353062
371	O	0.392947	0.916562	0.284745
372	C	0.325429	0.58103	0.003174
373	N	0.309071	0.579149	0.297027
374	C	0.277833	0.577279	0.294331
375	N	0.280083	0.584702	0.039845
376	C	0.309868	0.58348	0.043684
377	H	0.268561	0.578571	0.263281
378	N	0.32765	0.590409	0.085379
379	O	0.315438	0.600772	0.115871
380	O	0.325522	0.562952	0.099567
381	C	0.429795	0.747313	0.003127
382	N	0.431733	0.732752	0.297088
383	C	0.433677	0.703427	0.294515
384	C	0.430256	0.684731	0.001016
385	N	0.426249	0.698404	0.03996
386	C	0.427421	0.72939	0.043698
387	H	0.432412	0.692836	0.263492
388	N	0.420479	0.740242	0.085381
389	O	0.410162	0.717702	0.11592
390	O	0.44792	0.765629	0.099523
391	N	0.278427	0.701621	0.296695
392	C	0.307721	0.732927	0.294039
393	C	0.326035	0.748339	0.000739
394	N	0.312134	0.73107	0.039837
395	C	0.281073	0.701298	0.043463
396	H	0.318727	0.741851	0.263098
397	N	0.269815	0.683726	0.085238
398	O	0.292067	0.696131	0.116111
399	C	0.486981	0.968864	0.328154
400	N	0.47168	0.988657	0.3282
401	C	0.489833	0.523854	0.328134
402	C	0.361582	0.595884	0.334107
403	N	0.379028	0.578206	0.332499
404	C	0.414378	0.595158	0.330969
405	N	0.431896	0.630534	0.331225
406	C	0.414818	0.648568	0.333013
407	N	0.379907	0.630795	0.334554
408	C	0.414929	0.768579	0.334067
409	N	0.432601	0.803707	0.332534
410	C	0.415644	0.82209	0.330991
411	N	0.380264	0.804208	0.331155
412	C	0.362232	0.769088	0.332843
413	N	0.38001	0.751964	0.334405
414	C	0.47223	0.543164	0.661677
415	N	0.437087	0.525569	0.331721
416	C	0.417053	0.54051	0.332516
417	C	0.43285	0.576837	0.663225
418	N	0.467905	0.59444	0.659711
419	C	0.488325	0.579728	0.658709
420	H	0.390869	0.525107	0.335327
421	N	0.52438	0.601038	0.654247
422	O	0.536397	0.622057	0.686425
423	O	0.531587	0.617892	0.618103
424	C	0.46766	0.931948	0.661717
425	N	0.485248	0.914402	0.331794
426	C	0.470298	0.879424	0.332605
427	C	0.433966	0.858887	0.663282
428	N	0.41637	0.876337	0.659734
429	C	0.431092	0.911472	0.658729
430	H	0.485699	0.868648	0.335425
431	N	0.409787	0.926212	0.654234
432	O	0.388754	0.917211	0.686398
433	O	0.392947	0.916562	0.618079
434	C	0.325429	0.58103	0.336508
435	N	0.309071	0.579149	0.630359
436	C	0.277833	0.577279	0.627664
437	N	0.280083	0.584702	0.37318
438	C	0.309868	0.58348	0.377018
439	H	0.268561	0.578571	0.596616
440	N	0.32765	0.590409	0.41871
441	O	0.315438	0.600772	0.449202
442	O	0.325522	0.562952	0.432899
443	C	0.429795	0.747313	0.336462
444	N	0.431733	0.732752	0.630419
445	C	0.433677	0.703427	0.62785
446	C	0.430256	0.684731	0.33435
447	N	0.426249	0.698404	0.373295
448	C	0.427421	0.72939	0.377031
449	H	0.432412	0.692836	0.596825
450	N	0.420479	0.740242	0.418714
451	O	0.410162	0.717702	0.449253
452	O	0.44792	0.765629	0.432855
453	N	0.278427	0.701621	0.630028
454	C	0.307721	0.732927	0.627371
455	C	0.326035	0.748339	0.334072
456	N	0.312134	0.73107	0.37317
457	C	0.281073	0.701298	0.376795
458	H	0.318727	0.741851	0.59643
459	N	0.269815	0.683726	0.418572
460	O	0.292067	0.696131	0.449445
461	C	0.486981	0.968864	0.661488
462	N	0.47168	0.988657	0.661532
463	C	0.489833	0.523854	0.661468
464	C	0.361582	0.595884	0.667441
465	N	0.379028	0.578206	0.665832
466	C	0.414378	0.595158	0.664301
467	N	0.431896	0.630534	0.664557
468	C	0.414818	0.648568	0.666345
469	N	0.379907	0.630795	0.667886
470	C	0.414929	0.768579	0.6674
471	N	0.432601	0.803707	0.665866
472	C	0.415644	0.82209	0.664324
473	N	0.380264	0.804208	0.66449
474	C	0.362232	0.769088	0.666176
475	N	0.38001	0.751964	0.667737
476	C	0.47223	0.543164	0.995013
477	N	0.437087	0.525569	0.665053
478	C	0.417053	0.54051	0.665849
479	C	0.43285	0.576837	0.996557
480	N	0.467905	0.59444	0.993043
481	C	0.488325	0.579728	0.992041
482	H	0.390869	0.525107	0.668662
483	N	0.52438	0.601038	0.987579
484	O	0.536397	0.622057	0.019759
485	O	0.531587	0.617892	0.951435
486	C	0.46766	0.931948	0.99505
487	N	0.485248	0.914402	0.665127
488	C	0.470298	0.879424	0.665936
489	C	0.433966	0.858887	0.996615
490	N	0.41637	0.876337	0.99307
491	C	0.431092	0.911472	0.992062
492	H	0.485699	0.868648	0.668759
493	N	0.409787	0.926212	0.987566
494	O	0.388754	0.917211	0.019731
495	O	0.392947	0.916562	0.951412
496	C	0.325429	0.58103	0.669842
497	N	0.309071	0.579149	0.963691
498	C	0.277833	0.577279	0.960997
499	N	0.280083	0.584702	0.706512
500	C	0.309868	0.58348	0.71035
501	H	0.268561	0.578571	0.929948
502	N	0.32765	0.590409	0.752046
503	O	0.315438	0.600772	0.782538
504	O	0.325522	0.562952	0.766231
505	C	0.429795	0.747313	0.669795
506	N	0.431733	0.732752	0.963755
507	C	0.433677	0.703427	0.961182
508	C	0.430256	0.684731	0.667684
509	N	0.426249	0.698404	0.706627
510	C	0.427421	0.72939	0.710364
511	H	0.432412	0.692836	0.930157
512	N	0.420479	0.740242	0.752046
513	O	0.410162	0.717702	0.782585
514	O	0.44792	0.765629	0.766188
515	N	0.278427	0.701621	0.963361
516	C	0.307721	0.732927	0.960706
517	C	0.326035	0.748339	0.667404
518	N	0.312134	0.73107	0.706502
519	C	0.281073	0.701298	0.710128
520	H	0.318727	0.741851	0.929763
521	N	0.269815	0.683726	0.751904
522	O	0.292067	0.696131	0.782777
523	C	0.986983	0.468865	0.994821
524	N	0.971682	0.488659	0.994868
525	C	0.989833	0.023853	0.9948
526	N	0.524935	0.039158	0.994874
527	C	0.541982	0.021014	0.994831
528	N	0.52218	0.485915	0.994895
529	C	0.742288	0.149341	0.000406
530	N	0.707156	0.131854	0.999026
531	C	0.688775	0.096508	0.997606
532	N	0.706669	0.079031	0.997826
533	C	0.741796	0.096145	0.999461
534	N	0.75892	0.13106	0.000864
535	C	0.861581	0.095883	0.000773
536	N	0.879028	0.078207	0.999164
537	C	0.914377	0.095157	0.997633
538	N	0.931896	0.130533	0.997893
539	C	0.914818	0.148569	0.99968
540	N	0.879908	0.130796	0.001218
541	C	0.91493	0.268581	0.000733
542	N	0.9326	0.303706	0.999202
543	C	0.915645	0.322092	0.997657
544	N	0.880266	0.30421	0.997822
545	C	0.862232	0.269087	0.999508
546	N	0.880011	0.251963	0.00107
547	C	0.578903	0.03862	0.328402
548	N	0.596452	0.07376	0.998422
549	C	0.631433	0.093799	0.999229
550	C	0.651974	0.078014	0.329945
551	N	0.634521	0.042961	0.32645
552	C	0.59938	0.022536	0.325459
553	H	0.642211	0.119982	0.001991
554	N	0.584636	0.986484	0.321014
555	O	0.593641	0.97448	0.353201
556	O	0.594282	0.979271	0.284874
557	C	0.97223	0.043163	0.328346
558	N	0.937087	0.025569	0.998385
559	C	0.917052	0.040509	0.999181
560	C	0.932852	0.076838	0.329892
561	N	0.967906	0.094441	0.326379
562	C	0.988325	0.079727	0.325377
563	H	0.890869	0.025105	0.001994
564	C	0.967661	0.431947	0.328386
565	N	0.985249	0.414404	0.99846
566	C	0.970299	0.379426	0.999272
567	C	0.933968	0.358888	0.329949
568	N	0.91637	0.376336	0.326402
569	C	0.931092	0.411471	0.325394
570	H	0.9857	0.368649	0.002092
571	N	0.909788	0.426214	0.320901
572	O	0.888755	0.417212	0.353062
573	O	0.892947	0.416561	0.284744
574	C	0.82543	0.08103	0.003174
575	N	0.80907	0.079149	0.297026
576	C	0.777834	0.077278	0.294331
577	C	0.762527	0.0807	0.000787
578	N	0.780084	0.084701	0.039845
579	C	0.80987	0.083481	0.043684
580	H	0.768561	0.07857	0.263281
581	N	0.827652	0.09041	0.085379
582	O	0.815439	0.100773	0.115871
583	O	0.825524	0.062953	0.099567
584	C	0.929796	0.247314	0.003127
585	N	0.931733	0.232752	0.297088
586	C	0.933678	0.203427	0.294515
587	C	0.930255	0.184731	0.001016
588	N	0.926249	0.198403	0.03996
589	C	0.927422	0.229389	0.043698
590	H	0.932413	0.192837	0.263492
591	N	0.920479	0.240243	0.085381
592	O	0.910162	0.217703	0.11592
593	O	0.94792	0.265628	0.099523
594	C	0.763513	0.185493	0.00281
595	N	0.778427	0.201622	0.296695
596	C	0.807722	0.232928	0.294039
597	C	0.826034	0.248338	0.000739
598	N	0.812134	0.23107	0.039837
599	C	0.781074	0.201299	0.043463
600	H	0.818726	0.241851	0.263098
601	N	0.769816	0.183726	0.085238
602	O	0.792066	0.19613	0.116111
603	O	0.744302	0.185856	0.098625
604	C	0.986983	0.468865	0.328154
605	N	0.971682	0.488659	0.3282
606	C	0.989833	0.023853	0.328134
607	N	0.524935	0.039158	0.328209
608	C	0.541982	0.021014	0.328164
609	N	0.52218	0.485915	0.328229
610	C	0.742288	0.149341	0.333741
611	N	0.707156	0.131854	0.332361
612	C	0.688775	0.096508	0.33094
613	N	0.706669	0.079031	0.331159
614	C	0.741796	0.096145	0.332794
615	N	0.75892	0.13106	0.334198
616	C	0.861581	0.095883	0.334107
617	N	0.879028	0.078207	0.332499
618	C	0.914377	0.095157	0.330969
619	N	0.931896	0.130533	0.331225
620	C	0.914818	0.148569	0.333013
621	N	0.879908	0.130796	0.334554
622	C	0.91493	0.268581	0.334067
623	N	0.9326	0.303706	0.332535
624	C	0.915645	0.322092	0.330991
625	N	0.880266	0.30421	0.331156
626	C	0.862232	0.269087	0.332843
627	N	0.880011	0.251963	0.334405
628	C	0.578903	0.03862	0.661734
629	N	0.596452	0.07376	0.331758
630	C	0.631433	0.093799	0.332563
631	C	0.651974	0.078014	0.663279
632	N	0.634521	0.042961	0.659781
633	C	0.59938	0.022536	0.658793
634	H	0.642211	0.119982	0.335326
635	N	0.584636	0.986484	0.654348
636	O	0.593641	0.97448	0.686533
637	O	0.594282	0.979271	0.618207
638	C	0.97223	0.043163	0.66168
639	N	0.937087	0.025569	0.33172
640	C	0.917052	0.040509	0.332516
641	C	0.932852	0.076838	0.663225
642	N	0.967906	0.094441	0.659711
643	C	0.988325	0.079727	0.658709
644	H	0.890869	0.025105	0.335326
645	C	0.967661	0.431947	0.661717
646	N	0.985249	0.414404	0.331794
647	C	0.970299	0.379426	0.332605
648	C	0.933968	0.358888	0.663282
649	N	0.91637	0.376336	0.659734
650	C	0.931092	0.411471	0.658726
651	H	0.9857	0.368649	0.335426
652	N	0.909788	0.426214	0.654234
653	O	0.888755	0.417212	0.686395
654	O	0.892947	0.416561	0.618076
655	C	0.82543	0.08103	0.336508
656	N	0.80907	0.079149	0.630359
657	C	0.777834	0.077278	0.627664
658	C	0.762527	0.0807	0.334121
659	N	0.780084	0.084701	0.373177
660	C	0.80987	0.083481	0.377018
661	H	0.768561	0.07857	0.596612
662	N	0.827652	0.09041	0.41871
663	O	0.815439	0.100773	0.449202
664	O	0.825524	0.062953	0.432899
665	C	0.929796	0.247314	0.336462
666	N	0.931733	0.232752	0.630419
667	C	0.933678	0.203427	0.62785
668	C	0.930255	0.184731	0.33435
669	N	0.926249	0.198403	0.373295
670	C	0.927422	0.229389	0.377031
671	H	0.932413	0.192837	0.596825
672	N	0.920479	0.240243	0.418714
673	O	0.910162	0.217703	0.449253
674	O	0.94792	0.265628	0.432855
675	C	0.763513	0.185493	0.336146
676	N	0.778427	0.201622	0.630028
677	C	0.807722	0.232928	0.627371
678	C	0.826034	0.248338	0.334072
679	N	0.812134	0.23107	0.37317
680	C	0.781074	0.201299	0.376795
681	H	0.818726	0.241851	0.59643
682	N	0.769816	0.183726	0.418572
683	O	0.792066	0.19613	0.449445
684	O	0.744302	0.185856	0.431958
685	C	0.986983	0.468865	0.661488
686	N	0.971682	0.488659	0.661532
687	C	0.989833	0.023853	0.661468
688	N	0.524935	0.039158	0.661542
689	C	0.541982	0.021014	0.661498
690	N	0.52218	0.485915	0.661562
691	C	0.742288	0.149341	0.667073
692	N	0.707156	0.131854	0.665694
693	C	0.688775	0.096508	0.664274
694	N	0.706669	0.079031	0.664493
695	C	0.741796	0.096145	0.666129
696	N	0.75892	0.13106	0.667532
697	C	0.861581	0.095883	0.667441
698	N	0.879028	0.078207	0.665832
699	C	0.914377	0.095157	0.664301
700	N	0.931896	0.130533	0.664557
701	C	0.914818	0.148569	0.666345
702	N	0.879908	0.130796	0.667886
703	C	0.91493	0.268581	0.6674
704	N	0.9326	0.303706	0.665869
705	C	0.915645	0.322092	0.664324
706	N	0.880266	0.30421	0.66449
707	C	0.862232	0.269087	0.666176
708	N	0.880011	0.251963	0.667737
709	C	0.578903	0.03862	0.995067
710	N	0.596452	0.07376	0.66509
711	C	0.631433	0.093799	0.665896
712	C	0.651974	0.078014	0.996611
713	N	0.634521	0.042961	0.993117
714	C	0.59938	0.022536	0.992126
715	H	0.642211	0.119982	0.668658
716	N	0.584636	0.986484	0.987681
717	O	0.593641	0.97448	0.019867
718	O	0.594282	0.979271	0.95154
719	C	0.97223	0.043163	0.995013
720	N	0.937087	0.025569	0.665053
721	C	0.917052	0.040509	0.665849
722	C	0.932852	0.076838	0.996557
723	N	0.967906	0.094441	0.993043
724	C	0.988325	0.079727	0.992045
725	H	0.890869	0.025105	0.668658
726	C	0.967661	0.431947	0.995053
727	N	0.985249	0.414404	0.665127
728	C	0.970299	0.379426	0.665936
729	C	0.933968	0.358888	0.996615
730	N	0.91637	0.376336	0.99307
731	C	0.931092	0.411471	0.992062
732	H	0.9857	0.368649	0.668759
733	N	0.909788	0.426214	0.987566
734	O	0.888755	0.417212	0.01973
735	O	0.892947	0.416561	0.951412
736	C	0.82543	0.08103	0.669842
737	N	0.80907	0.079149	0.963691
738	C	0.777834	0.077278	0.960997
739	C	0.762527	0.0807	0.667454
740	N	0.780084	0.084701	0.706512
741	C	0.80987	0.083481	0.71035
742	H	0.768561	0.07857	0.929948
743	N	0.827652	0.09041	0.752046
744	O	0.815439	0.100773	0.782538
745	O	0.825524	0.062953	0.766231
746	C	0.929796	0.247314	0.669795
747	N	0.931733	0.232752	0.963755
748	C	0.933678	0.203427	0.961182
749	C	0.930255	0.184731	0.667684
750	N	0.926249	0.198403	0.706627
751	C	0.927422	0.229389	0.710364
752	H	0.932413	0.192837	0.930157
753	N	0.920479	0.240243	0.752046
754	O	0.910162	0.217703	0.782585
755	O	0.94792	0.265628	0.766188
756	C	0.763513	0.185493	0.669478
757	N	0.778427	0.201622	0.963361
758	C	0.807722	0.232928	0.960706
759	C	0.826034	0.248338	0.667404
760	N	0.812134	0.23107	0.706502
761	C	0.781074	0.201299	0.710128
762	H	0.818726	0.241851	0.929766
763	N	0.769816	0.183726	0.751904
764	O	0.792066	0.19613	0.782777
765	O	0.744302	0.185856	0.76529
766	C	0.986983	0.968864	0.994821
767	N	0.971682	0.988657	0.994868
768	C	0.989833	0.523854	0.9948
769	N	0.524933	0.539157	0.994874
770	C	0.541983	0.521014	0.994831
771	N	0.52218	0.985913	0.994895
772	C	0.742289	0.64934	0.000406
773	N	0.707155	0.631854	0.999026
774	C	0.688776	0.596507	0.997606
775	N	0.70667	0.579031	0.997826
776	C	0.741797	0.596145	0.999461
777	N	0.758922	0.631061	0.000864
778	C	0.861582	0.595884	0.000773
779	N	0.879029	0.578206	0.999164
780	C	0.914379	0.595158	0.997633
781	N	0.931897	0.630534	0.99789
782	C	0.914819	0.648568	0.99968
783	N	0.879909	0.630795	0.001218
784	C	0.91493	0.768579	0.000733
785	N	0.932602	0.803707	0.999202
786	C	0.915645	0.82209	0.997657
787	N	0.880266	0.804208	0.997822
788	C	0.862234	0.769088	0.999508
789	N	0.88001	0.751964	0.00107
790	C	0.578902	0.538619	0.328402
791	N	0.596453	0.57376	0.998422
792	C	0.631434	0.593799	0.999229
793	C	0.651972	0.578013	0.329945
794	N	0.634521	0.54296	0.326451
795	C	0.599381	0.522536	0.32546
796	H	0.64221	0.619982	0.001991
797	N	0.584637	0.486483	0.321016
798	O	0.593641	0.474482	0.353204
799	O	0.594281	0.47927	0.284876
800	C	0.972232	0.543164	0.328345
801	N	0.937088	0.525569	0.998385
802	C	0.917054	0.54051	0.999181
803	C	0.93285	0.576837	0.329892
804	N	0.967906	0.59444	0.326378
805	C	0.988326	0.579728	0.325376
806	H	0.890871	0.525107	0.001994
807	C	0.967661	0.931948	0.328386
808	N	0.985249	0.914402	0.99846
809	C	0.970299	0.879424	0.999272
810	C	0.933968	0.858887	0.329949
811	N	0.91637	0.876337	0.326402
812	C	0.931094	0.911472	0.325394
813	H	0.9857	0.868648	0.002092
814	N	0.909788	0.926212	0.320901
815	O	0.888755	0.917211	0.353062
816	O	0.892948	0.916562	0.284745
817	C	0.825429	0.58103	0.003174
818	N	0.809072	0.579149	0.297027
819	C	0.777833	0.577279	0.294331
820	C	0.762528	0.5807	0.000787
821	N	0.780083	0.584702	0.039845
822	C	0.809869	0.58348	0.043684
823	H	0.768563	0.578571	0.263281
824	N	0.82765	0.590409	0.085379
825	O	0.815439	0.600772	0.115871
826	O	0.825523	0.562952	0.099567
827	C	0.929796	0.747313	0.003127
828	N	0.931734	0.732752	0.297088
829	C	0.933677	0.703427	0.294515
830	C	0.930257	0.684731	0.001016
831	N	0.926251	0.698404	0.03996
832	C	0.927423	0.72939	0.043698
833	H	0.932414	0.692836	0.263492
834	N	0.92048	0.740242	0.085381
835	O	0.910163	0.717702	0.11592
836	O	0.947922	0.765629	0.099523
837	C	0.763514	0.685494	0.00281
838	N	0.778428	0.701621	0.296695
839	C	0.807721	0.732927	0.294039
840	C	0.826036	0.748339	0.000739
841	N	0.812135	0.73107	0.039837
842	C	0.781075	0.701298	0.043463
843	H	0.818727	0.741851	0.263098
844	N	0.769815	0.683726	0.085238
845	O	0.792067	0.696131	0.116111
846	O	0.744302	0.685855	0.098625
847	C	0.986983	0.968864	0.328154
848	N	0.971682	0.988657	0.3282
849	C	0.989833	0.523854	0.328134
850	N	0.524933	0.539157	0.328209
851	C	0.541983	0.521014	0.328164
852	N	0.52218	0.985913	0.328229
853	C	0.742289	0.64934	0.333741
854	N	0.707155	0.631854	0.332361
855	C	0.688776	0.596507	0.33094
856	N	0.70667	0.579031	0.331159
857	C	0.741797	0.596145	0.332795
858	N	0.758922	0.631061	0.334198
859	C	0.861582	0.595884	0.334107
860	N	0.879029	0.578206	0.332499
861	C	0.914379	0.595158	0.330969
862	N	0.931897	0.630534	0.331225
863	C	0.914819	0.648568	0.333013
864	N	0.879909	0.630795	0.334554
865	C	0.91493	0.768579	0.334067
866	N	0.932602	0.803707	0.332534
867	C	0.915645	0.82209	0.330991
868	N	0.880266	0.804208	0.331155
869	C	0.862234	0.769088	0.332843
870	N	0.88001	0.751964	0.334405
871	C	0.578902	0.538619	0.661734
872	N	0.596453	0.57376	0.331757
873	C	0.631434	0.593799	0.332563
874	C	0.651972	0.578013	0.663279
875	N	0.634521	0.54296	0.659785
876	C	0.599381	0.522536	0.658793
877	H	0.64221	0.619982	0.335325
878	N	0.584637	0.486483	0.654348
879	O	0.593641	0.474482	0.686536
880	O	0.594281	0.47927	0.618211
881	C	0.972232	0.543164	0.661677
882	N	0.937088	0.525569	0.331721
883	C	0.917054	0.54051	0.332516
884	C	0.93285	0.576837	0.663225
885	N	0.967906	0.59444	0.659711
886	C	0.988326	0.579728	0.658709
887	H	0.890871	0.525107	0.335327
888	C	0.967661	0.931948	0.661717
889	N	0.985249	0.914402	0.331794
890	C	0.970299	0.879424	0.332605
891	C	0.933968	0.858887	0.663282
892	N	0.91637	0.876337	0.659734
893	C	0.931094	0.911472	0.658729
894	H	0.9857	0.868648	0.335425
895	N	0.909788	0.926212	0.654234
896	O	0.888755	0.917211	0.686398
897	O	0.892948	0.916562	0.618079
898	C	0.825429	0.58103	0.336508
899	N	0.809072	0.579149	0.630359
900	C	0.777833	0.577279	0.627664
901	C	0.762528	0.5807	0.334121
902	N	0.780083	0.584702	0.37318
903	C	0.809869	0.58348	0.377018
904	H	0.768563	0.578571	0.596616
905	N	0.82765	0.590409	0.41871
906	O	0.815439	0.600772	0.449202
907	O	0.825523	0.562952	0.432899
908	C	0.929796	0.747313	0.336462
909	N	0.931734	0.732752	0.630419
910	C	0.933677	0.703427	0.62785
911	C	0.930257	0.684731	0.33435
912	N	0.926251	0.698404	0.373295
913	C	0.927423	0.72939	0.377031
914	H	0.932414	0.692836	0.596825
915	N	0.92048	0.740242	0.418714
916	O	0.910163	0.717702	0.449253
917	O	0.947922	0.765629	0.432855
918	C	0.763514	0.685494	0.336146
919	N	0.778428	0.701621	0.630028
920	C	0.807721	0.732927	0.627371
921	C	0.826036	0.748339	0.334072
922	N	0.812135	0.73107	0.37317
923	C	0.781075	0.701298	0.376795
924	H	0.818727	0.741851	0.59643
925	N	0.769815	0.683726	0.418572
926	O	0.792067	0.696131	0.449445
927	O	0.744302	0.685855	0.431958
928	C	0.986983	0.968864	0.661488
929	N	0.971682	0.988657	0.661532
930	C	0.989833	0.523854	0.661468
931	N	0.524933	0.539157	0.661542
932	C	0.541983	0.521014	0.661498
933	N	0.52218	0.985913	0.661562
934	C	0.742289	0.64934	0.667073
935	N	0.707155	0.631854	0.665694
936	C	0.688776	0.596507	0.664274
937	N	0.70667	0.579031	0.664493
938	C	0.741797	0.596145	0.666129
939	N	0.758922	0.631061	0.667532
940	C	0.861582	0.595884	0.667441
941	N	0.879029	0.578206	0.665832
942	C	0.914379	0.595158	0.664301
943	N	0.931897	0.630534	0.664557
944	C	0.914819	0.648568	0.666345
945	N	0.879909	0.630795	0.667886
946	C	0.91493	0.768579	0.6674
947	N	0.932602	0.803707	0.665866
948	C	0.915645	0.82209	0.664324
949	N	0.880266	0.804208	0.66449
950	C	0.862234	0.769088	0.666176
951	N	0.88001	0.751964	0.667737
952	C	0.578902	0.538619	0.995067
953	N	0.596453	0.57376	0.66509
954	C	0.631434	0.593799	0.665896
955	C	0.651972	0.578013	0.996611
956	N	0.634521	0.54296	0.993117
957	C	0.599381	0.522536	0.992126
958	H	0.64221	0.619982	0.668658
959	N	0.584637	0.486483	0.987681
960	O	0.593641	0.474482	0.01987
961	O	0.594281	0.47927	0.951543
962	C	0.972232	0.543164	0.995013
963	N	0.937088	0.525569	0.665053
964	C	0.917054	0.54051	0.665849
965	C	0.93285	0.576837	0.996557
966	N	0.967906	0.59444	0.993043
967	C	0.988326	0.579728	0.992041
968	H	0.890871	0.525107	0.668662
969	C	0.967661	0.931948	0.99505
970	N	0.985249	0.914402	0.665127
971	C	0.970299	0.879424	0.665936
972	C	0.933968	0.858887	0.996615
973	N	0.91637	0.876337	0.99307
974	C	0.931094	0.911472	0.992062
975	H	0.9857	0.868648	0.668759
976	N	0.909788	0.926212	0.987566
977	O	0.888755	0.917211	0.019731
978	O	0.892948	0.916562	0.951412
979	C	0.825429	0.58103	0.669842
980	N	0.809072	0.579149	0.963691
981	C	0.777833	0.577279	0.960997
982	C	0.762528	0.5807	0.667454
983	N	0.780083	0.584702	0.706512
984	C	0.809869	0.58348	0.71035
985	H	0.768563	0.578571	0.929948
986	N	0.82765	0.590409	0.752046
987	O	0.815439	0.600772	0.782538
988	O	0.825523	0.562952	0.766231
989	C	0.929796	0.747313	0.669795
990	N	0.931734	0.732752	0.963755
991	C	0.933677	0.703427	0.961182
992	C	0.930257	0.684731	0.667684
993	N	0.926251	0.698404	0.706627
994	C	0.927423	0.72939	0.710364
995	H	0.932414	0.692836	0.930157
996	N	0.92048	0.740242	0.752046
997	O	0.910163	0.717702	0.782585
998	O	0.947922	0.765629	0.766188
999	C	0.763514	0.685494	0.669478
1000	N	0.778428	0.701621	0.963361
1001	C	0.807721	0.732927	0.960706
1002	C	0.826036	0.748339	0.667404
1003	N	0.812135	0.73107	0.706502
1004	C	0.781075	0.701298	0.710128
1005	H	0.818727	0.741851	0.929763
1006	N	0.769815	0.683726	0.751904
1007	O	0.792067	0.696131	0.782777
1008	O	0.744302	0.685855	0.76529
