data_C360H144N216O144_2018-02-15_10:45:33
#******************************************
#
# CIF file created by Zeo++
# Zeo++ is an open source package to
# analyze microporous materials
#
#*******************************************

_cell_length_a		44.9819   
_cell_length_b		44.982   
_cell_length_c		29.4432   
_cell_angle_alpha		90   
_cell_angle_beta		90   
_cell_angle_gamma		120   

_symmetry_space_group_name_H-M		'P1'
_symmetry_Int_Tables_number		1
_symmetry_cell_setting		Monoclinic

loop_
_symmetry_equiv_pos_as_xyz
'+x,+y,+z'

loop_
_atom_site_label
_atom_site_type_symbol
_atom_site_fract_x
_atom_site_fract_y
_atom_site_fract_z
1	C	0.145765	0.322616	0.009381
2	N	0.166132	0.308254	0.009388
3	C	0.201021	0.327874	0.009377
4	N	0.215384	0.362603	0.009388
5	C	0.195764	0.377874	0.009377
6	N	0.161035	0.357507	0.009388
7	N	0.111239	0.301492	0.009388
8	N	0.209165	0.412398	0.009381
9	N	0.222146	0.314474	0.009381
10	C	0.238761	0.270162	0.342259
11	C	0.228855	0.23482	0.339191
12	C	0.254124	0.224746	0.340405
13	H	0.246094	0.199136	0.337897
14	N	0.193708	0.209678	0.334321
15	O	0.188084	0.193521	0.297558
16	O	0.183261	0.188616	0.366648
17	C	0.214133	0.281118	0.341549
18	H	0.188655	0.26302	0.339651
19	C	0.239549	0.020148	0.014181
20	C	0.229474	0.484804	0.01297
21	C	0.253478	0.473327	0.342259
22	H	0.203864	0.467225	0.015472
23	N	0.214406	0.030153	0.019048
24	O	0.198247	0.01962	0.055809
25	O	0.193346	0.019538	0.986717
26	H	0.267749	0.088548	0.013724
27	C	0.242521	0.437742	0.341549
28	H	0.260619	0.430362	0.339651
29	C	0.038833	0.249397	0.012976
30	C	0.050312	0.284878	0.342266
31	C	0.024876	0.294785	0.339199
32	H	0.056414	0.241366	0.01547
33	N	0.034881	0.32993	0.334335
34	O	0.02435	0.335559	0.297573
35	O	0.024265	0.340375	0.366665
36	C	0.085897	0.309507	0.341559
37	H	0.093277	0.334984	0.339654
38	C	0.145765	0.322616	0.342714
39	N	0.166132	0.308254	0.342721
40	C	0.201021	0.327874	0.342711
41	N	0.215384	0.362603	0.342721
42	C	0.195764	0.377874	0.342711
43	N	0.161035	0.357507	0.342721
44	N	0.111239	0.301492	0.342717
45	N	0.209165	0.412398	0.342714
46	N	0.222146	0.314474	0.342714
47	C	0.238761	0.270162	0.675592
48	C	0.228855	0.23482	0.672525
49	C	0.254124	0.224746	0.673738
50	H	0.246094	0.199136	0.671231
51	N	0.193708	0.209678	0.667655
52	O	0.188084	0.193521	0.630893
53	O	0.183261	0.188616	0.699982
54	C	0.214133	0.281118	0.674882
55	H	0.188655	0.26302	0.672984
56	C	0.239549	0.020148	0.347513
57	C	0.229474	0.484804	0.346304
58	C	0.253478	0.473327	0.675592
59	H	0.203864	0.467225	0.348804
60	N	0.214406	0.030153	0.35238
61	O	0.198247	0.01962	0.389142
62	O	0.193346	0.019538	0.320051
63	H	0.267749	0.088548	0.347058
64	C	0.242521	0.437742	0.674882
65	H	0.260619	0.430362	0.672984
66	C	0.038833	0.249397	0.346311
67	C	0.050312	0.284878	0.675599
68	C	0.024876	0.294785	0.672532
69	H	0.056414	0.241366	0.348804
70	N	0.034881	0.32993	0.667669
71	O	0.02435	0.335559	0.630906
72	O	0.024265	0.340375	0.699999
73	C	0.085897	0.309507	0.674893
74	H	0.093277	0.334984	0.672987
75	C	0.145765	0.322616	0.676047
76	N	0.166132	0.308254	0.676054
77	C	0.201021	0.327874	0.676044
78	N	0.215384	0.362603	0.676054
79	C	0.195764	0.377874	0.676044
80	N	0.161035	0.357507	0.676054
81	N	0.111239	0.301492	0.676054
82	N	0.209165	0.412398	0.676047
83	N	0.222146	0.314474	0.676047
84	C	0.238761	0.270162	0.008926
85	C	0.228855	0.23482	0.005859
86	C	0.254124	0.224746	0.007071
87	H	0.246094	0.199136	0.004565
88	N	0.193708	0.209678	0.000988
89	O	0.188084	0.193521	0.964226
90	O	0.183261	0.188616	0.033316
91	C	0.214133	0.281118	0.008216
92	H	0.188655	0.26302	0.006317
93	C	0.239549	0.020148	0.680846
94	C	0.229474	0.484804	0.679637
95	C	0.253478	0.473327	0.008926
96	H	0.203864	0.467225	0.682137
97	N	0.214406	0.030153	0.685713
98	O	0.198247	0.01962	0.722476
99	O	0.193346	0.019538	0.653383
100	H	0.267749	0.088548	0.680391
101	C	0.242521	0.437742	0.008216
102	H	0.260619	0.430362	0.006317
103	C	0.038833	0.249397	0.679644
104	C	0.050312	0.284878	0.008932
105	C	0.024876	0.294785	0.005865
106	H	0.056414	0.241366	0.682137
107	N	0.034881	0.32993	0.001002
108	O	0.02435	0.335559	0.96424
109	O	0.024265	0.340375	0.033332
110	C	0.085897	0.309507	0.008226
111	H	0.093277	0.334984	0.006321
112	C	0.145765	0.822617	0.009381
113	N	0.166132	0.808254	0.009388
114	C	0.201022	0.827874	0.009377
115	N	0.215384	0.862604	0.009388
116	C	0.195764	0.877872	0.009377
117	N	0.161035	0.857505	0.009388
118	N	0.11124	0.801493	0.009388
119	N	0.209165	0.912399	0.009381
120	N	0.222145	0.814472	0.009381
121	C	0.238761	0.77016	0.342259
122	C	0.228856	0.734819	0.339191
123	C	0.254125	0.724746	0.340405
124	H	0.246095	0.699135	0.337897
125	N	0.193709	0.709678	0.334321
126	O	0.188085	0.693521	0.297558
127	O	0.183261	0.688615	0.366648
128	C	0.214132	0.781116	0.341549
129	H	0.188654	0.763018	0.339651
130	C	0.239548	0.520147	0.014181
131	C	0.229475	0.984804	0.01297
132	C	0.253478	0.973327	0.342259
133	H	0.203862	0.967223	0.015472
134	N	0.214406	0.530153	0.019048
135	O	0.198248	0.51962	0.055809
136	O	0.193346	0.519538	0.986717
137	H	0.267748	0.588548	0.013724
138	C	0.24252	0.93774	0.341549
139	H	0.260618	0.93036	0.339651
140	C	0.038832	0.749395	0.012976
141	C	0.05031	0.784876	0.342266
142	C	0.024876	0.794783	0.339199
143	H	0.056415	0.741365	0.01547
144	N	0.03488	0.82993	0.334335
145	O	0.02435	0.835557	0.297573
146	O	0.024264	0.840373	0.366665
147	C	0.085896	0.809505	0.341559
148	H	0.093275	0.834982	0.339654
149	C	0.145765	0.822617	0.342714
150	N	0.166132	0.808254	0.342721
151	C	0.201022	0.827874	0.342711
152	N	0.215384	0.862604	0.342721
153	C	0.195764	0.877872	0.342711
154	N	0.161035	0.857505	0.342721
155	N	0.11124	0.801493	0.342717
156	N	0.209165	0.912399	0.342714
157	N	0.222145	0.814472	0.342714
158	C	0.238761	0.77016	0.675592
159	C	0.228856	0.734819	0.672525
160	C	0.254125	0.724746	0.673738
161	H	0.246095	0.699135	0.671231
162	N	0.193709	0.709678	0.667655
163	O	0.188085	0.693521	0.630893
164	O	0.183261	0.688615	0.699982
165	C	0.214132	0.781116	0.674882
166	H	0.188654	0.763018	0.672984
167	C	0.239548	0.520147	0.347513
168	C	0.229475	0.984804	0.346304
169	C	0.253478	0.973327	0.675592
170	H	0.203862	0.967223	0.348804
171	N	0.214406	0.530153	0.35238
172	O	0.198248	0.51962	0.389142
173	O	0.193346	0.519538	0.320051
174	H	0.267748	0.588548	0.347058
175	C	0.24252	0.93774	0.674882
176	H	0.260618	0.93036	0.672984
177	C	0.038832	0.749395	0.346311
178	C	0.05031	0.784876	0.675599
179	C	0.024876	0.794783	0.672532
180	H	0.056415	0.741365	0.348804
181	N	0.03488	0.82993	0.667669
182	O	0.02435	0.835557	0.630906
183	O	0.024264	0.840373	0.699999
184	C	0.085896	0.809505	0.674893
185	H	0.093275	0.834982	0.672987
186	C	0.145765	0.822617	0.676047
187	N	0.166132	0.808254	0.676054
188	C	0.201022	0.827874	0.676044
189	N	0.215384	0.862604	0.676054
190	C	0.195764	0.877872	0.676044
191	N	0.161035	0.857505	0.676054
192	N	0.11124	0.801493	0.676054
193	N	0.209165	0.912399	0.676047
194	N	0.222145	0.814472	0.676047
195	C	0.238761	0.77016	0.008926
196	C	0.228856	0.734819	0.005859
197	C	0.254125	0.724746	0.007071
198	H	0.246095	0.699135	0.004565
199	N	0.193709	0.709678	0.000988
200	O	0.188085	0.693521	0.964226
201	O	0.183261	0.688615	0.033316
202	C	0.214132	0.781116	0.008216
203	H	0.188654	0.763018	0.006317
204	C	0.239548	0.520147	0.680846
205	C	0.229475	0.984804	0.679637
206	C	0.253478	0.973327	0.008926
207	H	0.203862	0.967223	0.682137
208	N	0.214406	0.530153	0.685713
209	O	0.198248	0.51962	0.722476
210	O	0.193346	0.519538	0.653383
211	H	0.267748	0.588548	0.680391
212	C	0.24252	0.93774	0.008216
213	H	0.260618	0.93036	0.006317
214	C	0.038832	0.749395	0.679644
215	C	0.05031	0.784876	0.008932
216	C	0.024876	0.794783	0.005865
217	H	0.056415	0.741365	0.682137
218	N	0.03488	0.82993	0.001002
219	O	0.02435	0.835557	0.96424
220	O	0.024264	0.840373	0.033332
221	C	0.085896	0.809505	0.008226
222	H	0.093275	0.834982	0.006321
223	N	0.362236	0.210656	0.010654
224	C	0.327344	0.191035	0.010663
225	N	0.312983	0.156306	0.010654
226	C	0.332604	0.141037	0.010663
227	N	0.367333	0.161404	0.010653
228	N	0.319203	0.106511	0.010659
229	N	0.306221	0.204437	0.01066
230	C	0.289606	0.24875	0.011114
231	C	0.299511	0.28409	0.014182
232	C	0.274242	0.294163	0.01297
233	H	0.282272	0.319775	0.015476
234	N	0.334658	0.309232	0.019052
235	O	0.340282	0.325389	0.055816
236	O	0.345105	0.330294	0.986724
237	C	0.314234	0.237793	0.011825
238	H	0.339712	0.255891	0.013722
239	C	0.274889	0.045584	0.011115
240	C	0.28882	0.498763	0.339193
241	C	0.298893	0.034105	0.340401
242	H	0.324503	0.051686	0.337902
243	N	0.313961	0.488757	0.334326
244	O	0.330119	0.499289	0.297563
245	O	0.335023	0.499374	0.366655
246	C	0.285845	0.081169	0.011823
247	N	0.362236	0.210656	0.343988
248	C	0.327344	0.191035	0.343998
249	N	0.312983	0.156306	0.343988
250	C	0.332604	0.141037	0.343995
251	N	0.367333	0.161404	0.343988
252	N	0.319203	0.106511	0.343991
253	N	0.306221	0.204437	0.343995
254	C	0.289606	0.24875	0.344446
255	C	0.299511	0.28409	0.347517
256	C	0.274242	0.294163	0.346304
257	H	0.282272	0.319775	0.348811
258	N	0.334658	0.309232	0.352387
259	O	0.340282	0.325389	0.389149
260	O	0.345105	0.330294	0.320057
261	C	0.314234	0.237793	0.345159
262	H	0.339712	0.255891	0.347055
263	C	0.274889	0.045584	0.34445
264	C	0.28882	0.498763	0.672525
265	C	0.298893	0.034105	0.673734
266	H	0.324503	0.051686	0.671235
267	N	0.313961	0.488757	0.667658
268	O	0.330119	0.499289	0.630896
269	O	0.335023	0.499374	0.699988
270	C	0.285845	0.081169	0.345156
271	N	0.362236	0.210656	0.677321
272	C	0.327344	0.191035	0.677331
273	N	0.312983	0.156306	0.677321
274	C	0.332604	0.141037	0.677328
275	N	0.367333	0.161404	0.677321
276	N	0.319203	0.106511	0.677324
277	N	0.306221	0.204437	0.677328
278	C	0.289606	0.24875	0.67778
279	C	0.299511	0.28409	0.68085
280	C	0.274242	0.294163	0.679637
281	H	0.282272	0.319775	0.682144
282	N	0.334658	0.309232	0.68572
283	O	0.340282	0.325389	0.722483
284	O	0.345105	0.330294	0.65339
285	C	0.314234	0.237793	0.678493
286	H	0.339712	0.255891	0.680388
287	C	0.274889	0.045584	0.677783
288	C	0.28882	0.498763	0.005859
289	C	0.298893	0.034105	0.007068
290	H	0.324503	0.051686	0.004568
291	N	0.313961	0.488757	0.000992
292	O	0.330119	0.499289	0.964229
293	O	0.335023	0.499374	0.033322
294	C	0.285845	0.081169	0.678489
295	N	0.362235	0.710656	0.010654
296	C	0.327344	0.691034	0.010663
297	N	0.312982	0.656304	0.010654
298	C	0.332603	0.641036	0.010663
299	N	0.367332	0.661402	0.010653
300	N	0.319203	0.606512	0.010659
301	N	0.306221	0.704436	0.01066
302	C	0.289606	0.748748	0.011114
303	C	0.299512	0.784091	0.014182
304	C	0.274243	0.794164	0.01297
305	H	0.282272	0.819773	0.015476
306	N	0.334659	0.809232	0.019052
307	O	0.340283	0.825389	0.055816
308	O	0.345105	0.830292	0.986724
309	C	0.314234	0.737792	0.011825
310	H	0.339712	0.75589	0.013722
311	C	0.274889	0.545583	0.011115
312	C	0.288819	0.998761	0.339193
313	C	0.298892	0.534104	0.340401
314	H	0.324503	0.551685	0.337902
315	N	0.313962	0.988758	0.334326
316	O	0.330118	0.999287	0.297563
317	O	0.335022	0.999372	0.366655
318	C	0.285846	0.581167	0.011823
319	N	0.362235	0.710656	0.343988
320	C	0.327344	0.691034	0.343998
321	N	0.312982	0.656304	0.343988
322	C	0.332603	0.641036	0.343995
323	N	0.367332	0.661402	0.343988
324	N	0.319203	0.606512	0.343991
325	N	0.306221	0.704436	0.343995
326	C	0.289606	0.748748	0.344446
327	C	0.299512	0.784091	0.347517
328	C	0.274243	0.794164	0.346304
329	H	0.282272	0.819773	0.348811
330	N	0.334659	0.809232	0.352387
331	O	0.340283	0.825389	0.389149
332	O	0.345105	0.830292	0.320057
333	C	0.314234	0.737792	0.345159
334	H	0.339712	0.75589	0.347055
335	C	0.274889	0.545583	0.34445
336	C	0.288819	0.998761	0.672525
337	C	0.298892	0.534104	0.673734
338	H	0.324503	0.551685	0.671235
339	N	0.313962	0.988758	0.667658
340	O	0.330118	0.999287	0.630896
341	O	0.335022	0.999372	0.699988
342	C	0.285846	0.581167	0.345156
343	N	0.362235	0.710656	0.677321
344	C	0.327344	0.691034	0.677331
345	N	0.312982	0.656304	0.677321
346	C	0.332603	0.641036	0.677328
347	N	0.367332	0.661402	0.677321
348	N	0.319203	0.606512	0.677324
349	N	0.306221	0.704436	0.677328
350	C	0.289606	0.748748	0.67778
351	C	0.299512	0.784091	0.68085
352	C	0.274243	0.794164	0.679637
353	H	0.282272	0.819773	0.682144
354	N	0.334659	0.809232	0.68572
355	O	0.340283	0.825389	0.722483
356	O	0.345105	0.830292	0.65339
357	C	0.314234	0.737792	0.678493
358	H	0.339712	0.75589	0.680388
359	C	0.274889	0.545583	0.677783
360	C	0.288819	0.998761	0.005859
361	C	0.298892	0.534104	0.007068
362	H	0.324503	0.551685	0.004568
363	N	0.313962	0.988758	0.000992
364	O	0.330118	0.999287	0.964229
365	O	0.335022	0.999372	0.033322
366	C	0.285846	0.581167	0.678489
367	C	0.382602	0.196294	0.010663
368	N	0.417129	0.217418	0.010659
369	H	0.43509	0.183927	0.01372
370	C	0.382602	0.196294	0.343995
371	N	0.417129	0.217418	0.343991
372	H	0.43509	0.183927	0.347055
373	C	0.382602	0.196294	0.677328
374	N	0.417129	0.217418	0.677324
375	H	0.43509	0.183927	0.680388
376	C	0.382602	0.696293	0.010663
377	N	0.417128	0.717418	0.010659
378	H	0.43509	0.683926	0.01372
379	C	0.382602	0.696293	0.343995
380	N	0.417128	0.717418	0.343991
381	H	0.43509	0.683926	0.347055
382	C	0.382602	0.696293	0.677328
383	N	0.417128	0.717418	0.677324
384	H	0.43509	0.683926	0.680388
385	C	0.478055	0.234032	0.011113
386	C	0.503492	0.224127	0.014179
387	C	0.489534	0.269515	0.340405
388	H	0.471953	0.277544	0.337907
389	N	0.493486	0.188979	0.019039
390	O	0.504016	0.183349	0.0558
391	O	0.504103	0.178538	0.986707
392	C	0.442472	0.209404	0.011821
393	C	0.478055	0.234032	0.344446
394	C	0.503492	0.224127	0.347513
395	C	0.489534	0.269515	0.673738
396	H	0.471953	0.277544	0.671242
397	N	0.493486	0.188979	0.352373
398	O	0.504016	0.183349	0.389132
399	O	0.504103	0.178538	0.32004
400	C	0.442472	0.209404	0.345153
401	C	0.478055	0.234032	0.67778
402	C	0.503492	0.224127	0.680846
403	C	0.489534	0.269515	0.007071
404	H	0.471953	0.277544	0.004575
405	N	0.493486	0.188979	0.685707
406	O	0.504016	0.183349	0.722466
407	O	0.504103	0.178538	0.653373
408	C	0.442472	0.209404	0.678486
409	C	0.478055	0.734031	0.011113
410	C	0.503491	0.724125	0.014179
411	C	0.489534	0.769513	0.340405
412	H	0.471954	0.777545	0.337907
413	N	0.493485	0.688977	0.019039
414	O	0.504016	0.683348	0.0558
415	O	0.504103	0.678537	0.986707
416	C	0.44247	0.709403	0.011821
417	C	0.478055	0.734031	0.344446
418	C	0.503491	0.724125	0.347513
419	C	0.489534	0.769513	0.673738
420	H	0.471954	0.777545	0.671242
421	N	0.493485	0.688977	0.352373
422	O	0.504016	0.683348	0.389132
423	O	0.504103	0.678537	0.32004
424	C	0.44247	0.709403	0.345153
425	C	0.478055	0.734031	0.67778
426	C	0.503491	0.724125	0.680846
427	C	0.489534	0.769513	0.007071
428	H	0.471954	0.777545	0.004575
429	N	0.493485	0.688977	0.685707
430	O	0.504016	0.683348	0.722466
431	O	0.504103	0.678537	0.653373
432	C	0.44247	0.709403	0.678486
433	C	0.645766	0.322616	0.009381
434	N	0.666133	0.308254	0.009388
435	C	0.701022	0.327874	0.009377
436	N	0.715383	0.362603	0.009388
437	C	0.695764	0.377874	0.009377
438	N	0.661035	0.357507	0.009388
439	N	0.611241	0.301492	0.009388
440	N	0.709164	0.412398	0.009381
441	N	0.722147	0.314474	0.009381
442	C	0.882603	0.196294	0.010663
443	N	0.862235	0.210656	0.010654
444	C	0.827346	0.191035	0.010663
445	N	0.812984	0.156306	0.010654
446	C	0.832605	0.141037	0.010663
447	N	0.867334	0.161404	0.010653
448	N	0.917127	0.217418	0.010659
449	N	0.819202	0.106511	0.010659
450	N	0.806222	0.204437	0.01066
451	C	0.789607	0.24875	0.011114
452	C	0.799512	0.28409	0.014182
453	C	0.774243	0.294163	0.01297
454	C	0.738762	0.270162	0.342259
455	C	0.728856	0.23482	0.339191
456	H	0.782274	0.319775	0.015476
457	C	0.754125	0.224746	0.340405
458	H	0.746095	0.199136	0.337897
459	N	0.693709	0.209678	0.334321
460	N	0.834659	0.309232	0.019052
461	O	0.688085	0.193521	0.297558
462	O	0.840283	0.325389	0.055816
463	O	0.845105	0.330294	0.986724
464	O	0.683261	0.188616	0.366648
465	C	0.814234	0.237793	0.011825
466	H	0.839712	0.255891	0.013722
467	C	0.714132	0.281118	0.341549
468	H	0.688657	0.26302	0.339651
469	C	0.77489	0.045584	0.011115
470	C	0.73955	0.020148	0.014181
471	C	0.729474	0.484804	0.01297
472	C	0.753478	0.473327	0.342259
473	C	0.788819	0.498763	0.339193
474	H	0.703864	0.467225	0.015472
475	C	0.798894	0.034105	0.340401
476	H	0.824504	0.051686	0.337902
477	N	0.813961	0.488757	0.334326
478	N	0.714407	0.030153	0.019048
479	O	0.830119	0.499289	0.297563
480	O	0.698247	0.01962	0.055809
481	O	0.693346	0.019538	0.986717
482	O	0.835023	0.499374	0.366655
483	C	0.785846	0.081169	0.011823
484	H	0.76775	0.088548	0.013724
485	C	0.742522	0.437742	0.341549
486	H	0.760619	0.430362	0.339651
487	C	0.978056	0.234032	0.011113
488	C	0.003491	0.224127	0.014179
489	C	0.538834	0.249397	0.012976
490	C	0.550313	0.284878	0.342266
491	C	0.524878	0.294785	0.339199
492	H	0.556414	0.241366	0.01547
493	C	0.989535	0.269515	0.340405
494	H	0.971954	0.277544	0.337907
495	N	0.534881	0.32993	0.334335
496	N	0.993487	0.188979	0.019039
497	O	0.52435	0.335559	0.297573
498	O	0.004017	0.183349	0.0558
499	O	0.004104	0.178538	0.986707
500	O	0.524266	0.340375	0.366665
501	C	0.94247	0.209404	0.011821
502	H	0.935092	0.183927	0.01372
503	C	0.585898	0.309507	0.341559
504	H	0.593277	0.334984	0.339654
505	C	0.645766	0.322616	0.342714
506	N	0.666133	0.308254	0.342721
507	C	0.701022	0.327874	0.342711
508	N	0.715383	0.362603	0.342721
509	C	0.695764	0.377874	0.342711
510	N	0.661035	0.357507	0.342721
511	N	0.611241	0.301492	0.342717
512	N	0.709164	0.412398	0.342714
513	N	0.722147	0.314474	0.342714
514	C	0.882603	0.196294	0.343995
515	N	0.862235	0.210656	0.343988
516	C	0.827346	0.191035	0.343998
517	N	0.812984	0.156306	0.343988
518	C	0.832605	0.141037	0.343995
519	N	0.867334	0.161404	0.343988
520	N	0.917127	0.217418	0.343991
521	N	0.819202	0.106511	0.343991
522	N	0.806222	0.204437	0.343995
523	C	0.789607	0.24875	0.344446
524	C	0.799512	0.28409	0.347517
525	C	0.774243	0.294163	0.346304
526	C	0.738762	0.270162	0.675592
527	C	0.728856	0.23482	0.672525
528	H	0.782274	0.319775	0.348811
529	C	0.754125	0.224746	0.673738
530	H	0.746095	0.199136	0.671231
531	N	0.693709	0.209678	0.667655
532	N	0.834659	0.309232	0.352387
533	O	0.688085	0.193521	0.630893
534	O	0.840283	0.325389	0.389149
535	O	0.845105	0.330294	0.320057
536	O	0.683261	0.188616	0.699982
537	C	0.814234	0.237793	0.345159
538	H	0.839712	0.255891	0.347055
539	C	0.714132	0.281118	0.674882
540	H	0.688657	0.26302	0.672984
541	C	0.77489	0.045584	0.34445
542	C	0.73955	0.020148	0.347513
543	C	0.729474	0.484804	0.346304
544	C	0.753478	0.473327	0.675592
545	C	0.788819	0.498763	0.672525
546	H	0.703864	0.467225	0.348804
547	C	0.798894	0.034105	0.673734
548	H	0.824504	0.051686	0.671235
549	N	0.813961	0.488757	0.667658
550	N	0.714407	0.030153	0.35238
551	O	0.830119	0.499289	0.630896
552	O	0.698247	0.01962	0.389142
553	O	0.693346	0.019538	0.320051
554	O	0.835023	0.499374	0.699988
555	C	0.785846	0.081169	0.345156
556	H	0.76775	0.088548	0.347058
557	C	0.742522	0.437742	0.674882
558	H	0.760619	0.430362	0.672984
559	C	0.978056	0.234032	0.344446
560	C	0.003491	0.224127	0.347513
561	C	0.538834	0.249397	0.346311
562	C	0.550313	0.284878	0.675599
563	C	0.524878	0.294785	0.672532
564	H	0.556414	0.241366	0.348804
565	C	0.989535	0.269515	0.673738
566	H	0.971954	0.277544	0.671242
567	N	0.534881	0.32993	0.667669
568	N	0.993487	0.188979	0.352373
569	O	0.52435	0.335559	0.630906
570	O	0.004017	0.183349	0.389132
571	O	0.004104	0.178538	0.32004
572	O	0.524266	0.340375	0.699999
573	C	0.94247	0.209404	0.345153
574	H	0.935092	0.183927	0.347055
575	C	0.585898	0.309507	0.674893
576	H	0.593277	0.334984	0.672987
577	C	0.645766	0.322616	0.676047
578	N	0.666133	0.308254	0.676054
579	C	0.701022	0.327874	0.676044
580	N	0.715383	0.362603	0.676054
581	C	0.695764	0.377874	0.676044
582	N	0.661035	0.357507	0.676054
583	N	0.611241	0.301492	0.676054
584	N	0.709164	0.412398	0.676047
585	N	0.722147	0.314474	0.676047
586	C	0.882603	0.196294	0.677328
587	N	0.862235	0.210656	0.677321
588	C	0.827346	0.191035	0.677331
589	N	0.812984	0.156306	0.677321
590	C	0.832605	0.141037	0.677328
591	N	0.867334	0.161404	0.677321
592	N	0.917127	0.217418	0.677324
593	N	0.819202	0.106511	0.677324
594	N	0.806222	0.204437	0.677328
595	C	0.789607	0.24875	0.67778
596	C	0.799512	0.28409	0.68085
597	C	0.774243	0.294163	0.679637
598	C	0.738762	0.270162	0.008926
599	C	0.728856	0.23482	0.005859
600	H	0.782274	0.319775	0.682144
601	C	0.754125	0.224746	0.007071
602	H	0.746095	0.199136	0.004565
603	N	0.693709	0.209678	0.000988
604	N	0.834659	0.309232	0.68572
605	O	0.688085	0.193521	0.964226
606	O	0.840283	0.325389	0.722483
607	O	0.845105	0.330294	0.65339
608	O	0.683261	0.188616	0.033316
609	C	0.814234	0.237793	0.678493
610	H	0.839712	0.255891	0.680388
611	C	0.714132	0.281118	0.008216
612	H	0.688657	0.26302	0.006317
613	C	0.77489	0.045584	0.677783
614	C	0.73955	0.020148	0.680846
615	C	0.729474	0.484804	0.679637
616	C	0.753478	0.473327	0.008926
617	C	0.788819	0.498763	0.005859
618	H	0.703864	0.467225	0.682137
619	C	0.798894	0.034105	0.007068
620	H	0.824504	0.051686	0.004568
621	N	0.813961	0.488757	0.000992
622	N	0.714407	0.030153	0.685713
623	O	0.830119	0.499289	0.964229
624	O	0.698247	0.01962	0.722476
625	O	0.693346	0.019538	0.653383
626	O	0.835023	0.499374	0.033322
627	C	0.785846	0.081169	0.678489
628	H	0.76775	0.088548	0.680391
629	C	0.742522	0.437742	0.008216
630	H	0.760619	0.430362	0.006317
631	C	0.978056	0.234032	0.67778
632	C	0.003491	0.224127	0.680846
633	C	0.538834	0.249397	0.679644
634	C	0.550313	0.284878	0.008932
635	C	0.524878	0.294785	0.005865
636	H	0.556414	0.241366	0.682137
637	C	0.989535	0.269515	0.007071
638	H	0.971954	0.277544	0.004575
639	N	0.534881	0.32993	0.001002
640	N	0.993487	0.188979	0.685707
641	O	0.52435	0.335559	0.96424
642	O	0.004017	0.183349	0.722466
643	O	0.004104	0.178538	0.653373
644	O	0.524266	0.340375	0.033332
645	C	0.94247	0.209404	0.678486
646	H	0.935092	0.183927	0.680388
647	C	0.585898	0.309507	0.008226
648	H	0.593277	0.334984	0.006321
649	C	0.645766	0.822617	0.009381
650	N	0.666133	0.808254	0.009388
651	C	0.701022	0.827874	0.009377
652	N	0.715384	0.862604	0.009388
653	C	0.695763	0.877872	0.009377
654	N	0.661034	0.857505	0.009388
655	N	0.61124	0.801493	0.009388
656	N	0.709167	0.912399	0.009381
657	N	0.722146	0.814472	0.009381
658	C	0.882602	0.696293	0.010663
659	N	0.862235	0.710656	0.010654
660	C	0.827345	0.691034	0.010663
661	N	0.812983	0.656304	0.010654
662	C	0.832604	0.641036	0.010663
663	N	0.867333	0.661402	0.010653
664	N	0.917128	0.717418	0.010659
665	N	0.819204	0.606512	0.010659
666	N	0.806221	0.704436	0.01066
667	C	0.789606	0.748748	0.011114
668	C	0.799512	0.784091	0.014182
669	C	0.774243	0.794164	0.01297
670	C	0.738761	0.77016	0.342259
671	C	0.728856	0.734819	0.339191
672	H	0.782273	0.819773	0.015476
673	C	0.754125	0.724746	0.340405
674	H	0.746095	0.699135	0.337897
675	N	0.693709	0.709678	0.334321
676	N	0.834659	0.809232	0.019052
677	O	0.688085	0.693521	0.297558
678	O	0.840283	0.825389	0.055816
679	O	0.845104	0.830292	0.986724
680	O	0.683263	0.688615	0.366648
681	C	0.814234	0.737792	0.011825
682	H	0.839711	0.75589	0.013722
683	C	0.714133	0.781116	0.341549
684	H	0.688656	0.763018	0.339651
685	C	0.77489	0.545583	0.011115
686	C	0.739549	0.520147	0.014181
687	C	0.729474	0.984804	0.01297
688	C	0.753479	0.973327	0.342259
689	C	0.78882	0.998761	0.339193
690	H	0.703864	0.967223	0.015472
691	C	0.798893	0.534104	0.340401
692	H	0.824504	0.551685	0.337902
693	N	0.813962	0.988758	0.334326
694	N	0.714407	0.530153	0.019048
695	O	0.83012	0.999287	0.297563
696	O	0.698247	0.51962	0.055809
697	O	0.693346	0.519538	0.986717
698	O	0.835022	0.999372	0.366655
699	C	0.785846	0.581167	0.011823
700	H	0.767749	0.588548	0.013724
701	C	0.742521	0.93774	0.341549
702	H	0.76062	0.93036	0.339651
703	C	0.978056	0.734031	0.011113
704	C	0.00349	0.724125	0.014179
705	C	0.538833	0.749395	0.012976
706	C	0.550311	0.784876	0.342266
707	C	0.524876	0.794783	0.339199
708	H	0.556414	0.741365	0.01547
709	C	0.989534	0.769513	0.340405
710	H	0.971955	0.777545	0.337907
711	N	0.534881	0.82993	0.334335
712	N	0.993486	0.688977	0.019039
713	O	0.52435	0.835557	0.297573
714	O	0.004017	0.683348	0.0558
715	O	0.004104	0.678537	0.986707
716	O	0.524265	0.840373	0.366665
717	C	0.94247	0.709403	0.011821
718	H	0.935091	0.683926	0.01372
719	C	0.585896	0.809505	0.341559
720	H	0.593277	0.834982	0.339654
721	C	0.645766	0.822617	0.342714
722	N	0.666133	0.808254	0.342721
723	C	0.701022	0.827874	0.342711
724	N	0.715384	0.862604	0.342721
725	C	0.695763	0.877872	0.342711
726	N	0.661034	0.857505	0.342721
727	N	0.61124	0.801493	0.342717
728	N	0.709167	0.912399	0.342714
729	N	0.722146	0.814472	0.342714
730	C	0.882602	0.696293	0.343995
731	N	0.862235	0.710656	0.343988
732	C	0.827345	0.691034	0.343998
733	N	0.812983	0.656304	0.343988
734	C	0.832604	0.641036	0.343995
735	N	0.867333	0.661402	0.343988
736	N	0.917128	0.717418	0.343991
737	N	0.819204	0.606512	0.343991
738	N	0.806221	0.704436	0.343995
739	C	0.789606	0.748748	0.344446
740	C	0.799512	0.784091	0.347517
741	C	0.774243	0.794164	0.346304
742	C	0.738761	0.77016	0.675592
743	C	0.728856	0.734819	0.672525
744	H	0.782273	0.819773	0.348811
745	C	0.754125	0.724746	0.673738
746	H	0.746095	0.699135	0.671231
747	N	0.693709	0.709678	0.667655
748	N	0.834659	0.809232	0.352387
749	O	0.688085	0.693521	0.630893
750	O	0.840283	0.825389	0.389149
751	O	0.845104	0.830292	0.320057
752	O	0.683263	0.688615	0.699982
753	C	0.814234	0.737792	0.345159
754	H	0.839711	0.75589	0.347055
755	C	0.714133	0.781116	0.674882
756	H	0.688656	0.763018	0.672984
757	C	0.77489	0.545583	0.34445
758	C	0.739549	0.520147	0.347513
759	C	0.729474	0.984804	0.346304
760	C	0.753479	0.973327	0.675592
761	C	0.78882	0.998761	0.672525
762	H	0.703864	0.967223	0.348804
763	C	0.798893	0.534104	0.673734
764	H	0.824504	0.551685	0.671235
765	N	0.813962	0.988758	0.667658
766	N	0.714407	0.530153	0.35238
767	O	0.83012	0.999287	0.630896
768	O	0.698247	0.51962	0.389142
769	O	0.693346	0.519538	0.320051
770	O	0.835022	0.999372	0.699988
771	C	0.785846	0.581167	0.345156
772	H	0.767749	0.588548	0.347058
773	C	0.742521	0.93774	0.674882
774	H	0.76062	0.93036	0.672984
775	C	0.978056	0.734031	0.344446
776	C	0.00349	0.724125	0.347513
777	C	0.538833	0.749395	0.346311
778	C	0.550311	0.784876	0.675599
779	C	0.524876	0.794783	0.672532
780	H	0.556414	0.741365	0.348804
781	C	0.989534	0.769513	0.673738
782	H	0.971955	0.777545	0.671242
783	N	0.534881	0.82993	0.667669
784	N	0.993486	0.688977	0.352373
785	O	0.52435	0.835557	0.630906
786	O	0.004017	0.683348	0.389132
787	O	0.004104	0.678537	0.32004
788	O	0.524265	0.840373	0.699999
789	C	0.94247	0.709403	0.345153
790	H	0.935091	0.683926	0.347055
791	C	0.585896	0.809505	0.674893
792	H	0.593277	0.834982	0.672987
793	C	0.645766	0.822617	0.676047
794	N	0.666133	0.808254	0.676054
795	C	0.701022	0.827874	0.676044
796	N	0.715384	0.862604	0.676054
797	C	0.695763	0.877872	0.676044
798	N	0.661034	0.857505	0.676054
799	N	0.61124	0.801493	0.676054
800	N	0.709167	0.912399	0.676047
801	N	0.722146	0.814472	0.676047
802	C	0.882602	0.696293	0.677328
803	N	0.862235	0.710656	0.677321
804	C	0.827345	0.691034	0.677331
805	N	0.812983	0.656304	0.677321
806	C	0.832604	0.641036	0.677328
807	N	0.867333	0.661402	0.677321
808	N	0.917128	0.717418	0.677324
809	N	0.819204	0.606512	0.677324
810	N	0.806221	0.704436	0.677328
811	C	0.789606	0.748748	0.67778
812	C	0.799512	0.784091	0.68085
813	C	0.774243	0.794164	0.679637
814	C	0.738761	0.77016	0.008926
815	C	0.728856	0.734819	0.005859
816	H	0.782273	0.819773	0.682144
817	C	0.754125	0.724746	0.007071
818	H	0.746095	0.699135	0.004565
819	N	0.693709	0.709678	0.000988
820	N	0.834659	0.809232	0.68572
821	O	0.688085	0.693521	0.964226
822	O	0.840283	0.825389	0.722483
823	O	0.845104	0.830292	0.65339
824	O	0.683263	0.688615	0.033316
825	C	0.814234	0.737792	0.678493
826	H	0.839711	0.75589	0.680388
827	C	0.714133	0.781116	0.008216
828	H	0.688656	0.763018	0.006317
829	C	0.77489	0.545583	0.677783
830	C	0.739549	0.520147	0.680846
831	C	0.729474	0.984804	0.679637
832	C	0.753479	0.973327	0.008926
833	C	0.78882	0.998761	0.005859
834	H	0.703864	0.967223	0.682137
835	C	0.798893	0.534104	0.007068
836	H	0.824504	0.551685	0.004568
837	N	0.813962	0.988758	0.000992
838	N	0.714407	0.530153	0.685713
839	O	0.83012	0.999287	0.964229
840	O	0.698247	0.51962	0.722476
841	O	0.693346	0.519538	0.653383
842	O	0.835022	0.999372	0.033322
843	C	0.785846	0.581167	0.678489
844	H	0.767749	0.588548	0.680391
845	C	0.742521	0.93774	0.008216
846	H	0.76062	0.93036	0.006317
847	C	0.978056	0.734031	0.67778
848	C	0.00349	0.724125	0.680846
849	C	0.538833	0.749395	0.679644
850	C	0.550311	0.784876	0.008932
851	C	0.524876	0.794783	0.005865
852	H	0.556414	0.741365	0.682137
853	C	0.989534	0.769513	0.007071
854	H	0.971955	0.777545	0.004575
855	N	0.534881	0.82993	0.001002
856	N	0.993486	0.688977	0.685707
857	O	0.52435	0.835557	0.96424
858	O	0.004017	0.683348	0.722466
859	O	0.004104	0.678537	0.653373
860	O	0.524265	0.840373	0.033332
861	C	0.94247	0.709403	0.678486
862	H	0.935091	0.683926	0.680388
863	C	0.585896	0.809505	0.008226
864	H	0.593277	0.834982	0.006321
