data_C432H432N72_2018-02-15_10:36:28
#******************************************
#
# CIF file created by Zeo++
# Zeo++ is an open source package to
# analyze microporous materials
#
#*******************************************

_cell_length_a		29.2865   
_cell_length_b		29.2866   
_cell_length_c		29.554   
_cell_angle_alpha		90   
_cell_angle_beta		90   
_cell_angle_gamma		120   

_symmetry_space_group_name_H-M		'P1'
_symmetry_Int_Tables_number		1
_symmetry_cell_setting		Monoclinic

loop_
_symmetry_equiv_pos_as_xyz
'+x,+y,+z'

loop_
_atom_site_label
_atom_site_type_symbol
_atom_site_fract_x
_atom_site_fract_y
_atom_site_fract_z
1	C	0.067872	0.285823	0.008523
2	C	0.039535	0.271654	0.050378
3	C	0.039765	0.271769	0.299906
4	C	0.068438	0.286107	0.094791
5	H	0.057817	0.250365	0.114078
6	H	0.057815	0.311225	0.114078
7	C	0.068764	0.286269	0.255422
8	H	0.058276	0.311369	0.235997
9	H	0.058277	0.250682	0.235997
10	C	0.067872	0.285823	0.341856
11	C	0.039535	0.271654	0.383712
12	C	0.039765	0.271769	0.633238
13	C	0.068438	0.286107	0.428125
14	H	0.057817	0.250365	0.447412
15	H	0.057815	0.311225	0.447412
16	C	0.068764	0.286269	0.588754
17	H	0.058276	0.311369	0.569332
18	H	0.058277	0.250682	0.569332
19	C	0.067872	0.285823	0.675189
20	C	0.039535	0.271654	0.717044
21	C	0.039765	0.271769	0.966571
22	C	0.068438	0.286107	0.761458
23	H	0.057817	0.250365	0.780745
24	H	0.057815	0.311225	0.780745
25	C	0.068764	0.286269	0.922086
26	H	0.058276	0.311369	0.902664
27	H	0.058277	0.250682	0.902664
28	C	0.067872	0.785821	0.008523
29	C	0.039536	0.771655	0.050378
30	C	0.039764	0.771769	0.299906
31	C	0.068438	0.786105	0.094791
32	H	0.057816	0.750364	0.114078
33	H	0.057815	0.811225	0.114078
34	C	0.068765	0.786271	0.255422
35	H	0.058277	0.811371	0.235997
36	H	0.058278	0.750684	0.235997
37	C	0.067872	0.785821	0.341856
38	C	0.039536	0.771655	0.383712
39	C	0.039764	0.771769	0.633238
40	C	0.068438	0.786105	0.428125
41	H	0.057816	0.750364	0.447412
42	H	0.057815	0.811225	0.447412
43	C	0.068765	0.786271	0.588754
44	H	0.058277	0.811371	0.569332
45	H	0.058278	0.750684	0.569332
46	C	0.067872	0.785821	0.675189
47	C	0.039536	0.771655	0.717044
48	C	0.039764	0.771769	0.966571
49	C	0.068438	0.786105	0.761458
50	H	0.057816	0.750364	0.780745
51	H	0.057815	0.811225	0.780745
52	C	0.068765	0.786271	0.922086
53	H	0.058277	0.811371	0.902664
54	H	0.058278	0.750684	0.902664
55	N	0.151308	0.36756	0.008561
56	C	0.123819	0.313796	0.008567
57	N	0.151308	0.287522	0.008561
58	H	0.111247	0.307512	0.092404
59	H	0.11156	0.307668	0.257965
60	N	0.151308	0.36756	0.341893
61	C	0.123819	0.313796	0.3419
62	N	0.151308	0.287522	0.341893
63	H	0.111247	0.307512	0.425737
64	H	0.11156	0.307668	0.591298
65	N	0.151308	0.36756	0.675226
66	C	0.123819	0.313796	0.675233
67	N	0.151308	0.287522	0.675226
68	H	0.111247	0.307512	0.759069
69	H	0.11156	0.307668	0.924631
70	N	0.151309	0.867559	0.008561
71	C	0.12382	0.813795	0.008567
72	N	0.151308	0.787521	0.008561
73	H	0.111247	0.807511	0.092404
74	H	0.111561	0.807668	0.257965
75	N	0.151309	0.867559	0.341893
76	C	0.12382	0.813795	0.3419
77	N	0.151308	0.787521	0.341893
78	H	0.111247	0.807511	0.425737
79	H	0.111561	0.807668	0.591298
80	N	0.151309	0.867559	0.675226
81	C	0.12382	0.813795	0.675233
82	N	0.151308	0.787521	0.675226
83	H	0.111247	0.807511	0.759069
84	H	0.111561	0.807668	0.924631
85	C	0.205073	0.39505	0.008566
86	C	0.205072	0.313796	0.008566
87	N	0.231347	0.36756	0.008561
88	H	0.211356	0.30751	0.092404
89	H	0.207643	0.250364	0.114078
90	H	0.211201	0.307665	0.257964
91	H	0.2075	0.250679	0.235997
92	H	0.211356	0.407619	0.092404
93	H	0.207643	0.461052	0.114078
94	H	0.211201	0.407308	0.257964
95	H	0.207501	0.460594	0.235997
96	C	0.205073	0.39505	0.3419
97	C	0.205072	0.313796	0.3419
98	N	0.231347	0.36756	0.341893
99	H	0.211356	0.30751	0.425737
100	H	0.207643	0.250364	0.447412
101	H	0.211201	0.307665	0.591298
102	H	0.2075	0.250679	0.569332
103	H	0.211356	0.407619	0.425737
104	H	0.207643	0.461052	0.447412
105	H	0.211201	0.407308	0.591298
106	H	0.207501	0.460594	0.569328
107	C	0.205073	0.39505	0.675233
108	C	0.205072	0.313796	0.675233
109	N	0.231347	0.36756	0.675226
110	H	0.211356	0.30751	0.759069
111	H	0.207643	0.250364	0.780745
112	H	0.211201	0.307665	0.924631
113	H	0.2075	0.250679	0.902664
114	H	0.211356	0.407619	0.759069
115	H	0.207643	0.461052	0.780745
116	H	0.211201	0.407308	0.924631
117	H	0.207501	0.460594	0.902664
118	C	0.205072	0.895048	0.008566
119	C	0.205072	0.813795	0.008566
120	N	0.231347	0.867559	0.008561
121	H	0.211357	0.807511	0.092404
122	H	0.207643	0.750364	0.114078
123	H	0.211201	0.807664	0.257964
124	H	0.207501	0.75068	0.235997
125	H	0.211358	0.907622	0.092404
126	H	0.207645	0.961054	0.114078
127	H	0.211203	0.90731	0.257964
128	H	0.207501	0.960593	0.235997
129	C	0.205072	0.895048	0.3419
130	C	0.205072	0.813795	0.3419
131	N	0.231347	0.867559	0.341893
132	H	0.211357	0.807511	0.425737
133	H	0.207643	0.750364	0.447412
134	H	0.211201	0.807664	0.591298
135	H	0.207501	0.75068	0.569332
136	H	0.211358	0.907622	0.425737
137	H	0.207645	0.961054	0.447412
138	H	0.211203	0.90731	0.591298
139	H	0.207501	0.960593	0.569328
140	C	0.205072	0.895048	0.675233
141	C	0.205072	0.813795	0.675233
142	N	0.231347	0.867559	0.675226
143	H	0.211357	0.807511	0.759069
144	H	0.207643	0.750364	0.780745
145	H	0.211201	0.807664	0.924631
146	H	0.207501	0.75068	0.902664
147	H	0.211358	0.907622	0.759069
148	H	0.207645	0.961054	0.780745
149	H	0.211203	0.90731	0.924631
150	H	0.207501	0.960593	0.902664
151	C	0.317561	0.120026	0.008407
152	N	0.371324	0.147544	0.008326
153	C	0.398842	0.201308	0.008407
154	N	0.371324	0.227553	0.008327
155	C	0.317561	0.201308	0.008409
156	N	0.291316	0.147544	0.008327
157	C	0.233045	0.285822	0.008523
158	C	0.247214	0.271654	0.050378
159	C	0.275505	0.243363	0.050199
160	C	0.289546	0.229323	0.008234
161	C	0.275393	0.243476	0.299764
162	C	0.247099	0.271768	0.299906
163	C	0.291408	0.227462	0.093245
164	H	0.280143	0.238727	0.124495
165	H	0.33422	0.245246	0.094265
166	H	0.273625	0.18465	0.094266
167	C	0.232761	0.286105	0.094791
168	H	0.268503	0.311225	0.114078
169	C	0.289829	0.229041	0.255236
170	H	0.311231	0.20764	0.257732
171	H	0.314905	0.264652	0.235831
172	H	0.254217	0.203964	0.235831
173	C	0.2326	0.286267	0.255422
174	H	0.268187	0.311368	0.235997
175	C	0.233047	0.450998	0.008523
176	C	0.247215	0.479334	0.050378
177	C	0.275505	0.035915	0.050198
178	C	0.289546	0.063996	0.008233
179	C	0.275392	0.035689	0.299763
180	C	0.247101	0.479106	0.299906
181	C	0.291408	0.067719	0.093243
182	H	0.280143	0.045189	0.124494
183	H	0.273625	0.092749	0.094264
184	H	0.33422	0.092748	0.094264
185	C	0.232762	0.45043	0.094791
186	H	0.268503	0.461052	0.114078
187	C	0.289828	0.06456	0.255235
188	H	0.31123	0.107364	0.257731
189	H	0.254216	0.054025	0.23583
190	H	0.314904	0.054025	0.23583
191	C	0.232601	0.450107	0.255422
192	H	0.268186	0.46059	0.235997
193	C	0.482954	0.243363	0.050198
194	C	0.454873	0.229322	0.008233
195	C	0.483178	0.243476	0.299764
196	C	0.451149	0.22746	0.093243
197	H	0.47368	0.238725	0.124495
198	H	0.42612	0.184648	0.094264
199	H	0.42612	0.245243	0.094265
200	C	0.454308	0.22904	0.255235
201	H	0.411505	0.207638	0.257731
202	H	0.464846	0.203964	0.23583
203	H	0.464843	0.264652	0.23583
204	C	0.317561	0.120026	0.341741
205	N	0.371324	0.147544	0.34166
206	C	0.398842	0.201308	0.341741
207	N	0.371324	0.227553	0.34166
208	C	0.317561	0.201308	0.341741
209	N	0.291316	0.147544	0.34166
210	C	0.233045	0.285822	0.341856
211	C	0.247214	0.271654	0.383712
212	C	0.275505	0.243363	0.383532
213	C	0.289546	0.229323	0.341568
214	C	0.275393	0.243476	0.633096
215	C	0.247099	0.271768	0.633238
216	C	0.291408	0.227462	0.426576
217	H	0.280143	0.238727	0.457827
218	H	0.33422	0.245246	0.427598
219	H	0.273625	0.18465	0.427598
220	C	0.232761	0.286105	0.428125
221	H	0.268503	0.311225	0.447412
222	C	0.289829	0.229041	0.588568
223	H	0.311231	0.20764	0.591065
224	H	0.314905	0.264652	0.569162
225	H	0.254217	0.203964	0.569166
226	C	0.2326	0.286267	0.588754
227	H	0.268187	0.311368	0.569332
228	C	0.233047	0.450998	0.341856
229	C	0.247215	0.479334	0.383712
230	C	0.275505	0.035915	0.383529
231	C	0.289546	0.063996	0.341565
232	C	0.275392	0.035689	0.633096
233	C	0.247101	0.479106	0.633238
234	C	0.291408	0.067719	0.426576
235	H	0.280143	0.045189	0.457827
236	H	0.273625	0.092749	0.427598
237	H	0.33422	0.092748	0.427598
238	C	0.232762	0.45043	0.428125
239	H	0.268503	0.461052	0.447412
240	C	0.289828	0.06456	0.588568
241	H	0.31123	0.107364	0.591065
242	H	0.254216	0.054025	0.569162
243	H	0.314904	0.054025	0.569162
244	C	0.232601	0.450107	0.588754
245	H	0.268186	0.46059	0.569328
246	C	0.482954	0.243363	0.383532
247	C	0.454873	0.229322	0.341565
248	C	0.483178	0.243476	0.633096
249	C	0.451149	0.22746	0.426576
250	H	0.47368	0.238725	0.457827
251	H	0.42612	0.184648	0.427598
252	H	0.42612	0.245243	0.427598
253	C	0.454308	0.22904	0.588568
254	H	0.411505	0.207638	0.591065
255	H	0.464846	0.203964	0.569162
256	H	0.464843	0.264652	0.569162
257	C	0.317561	0.120026	0.675074
258	N	0.371324	0.147544	0.674993
259	C	0.398842	0.201308	0.675074
260	N	0.371324	0.227553	0.674993
261	C	0.317561	0.201308	0.675074
262	N	0.291316	0.147544	0.674993
263	C	0.233045	0.285822	0.675189
264	C	0.247214	0.271654	0.717044
265	C	0.275505	0.243363	0.716865
266	C	0.289546	0.229323	0.674901
267	C	0.275393	0.243476	0.966429
268	C	0.247099	0.271768	0.966571
269	C	0.291408	0.227462	0.759912
270	H	0.280143	0.238727	0.79116
271	H	0.33422	0.245246	0.76093
272	H	0.273625	0.18465	0.76093
273	C	0.232761	0.286105	0.761458
274	H	0.268503	0.311225	0.780745
275	C	0.289829	0.229041	0.9219
276	H	0.311231	0.20764	0.924397
277	H	0.314905	0.264652	0.902498
278	H	0.254217	0.203964	0.902498
279	C	0.2326	0.286267	0.922086
280	H	0.268187	0.311368	0.902664
281	C	0.233047	0.450998	0.675189
282	C	0.247215	0.479334	0.717044
283	C	0.275505	0.035915	0.716865
284	C	0.289546	0.063996	0.674898
285	C	0.275392	0.035689	0.966429
286	C	0.247101	0.479106	0.966571
287	C	0.291408	0.067719	0.759908
288	H	0.280143	0.045189	0.79116
289	H	0.273625	0.092749	0.76093
290	H	0.33422	0.092748	0.76093
291	C	0.232762	0.45043	0.761458
292	H	0.268503	0.461052	0.780745
293	C	0.289828	0.06456	0.9219
294	H	0.31123	0.107364	0.924397
295	H	0.254216	0.054025	0.902495
296	H	0.314904	0.054025	0.902495
297	C	0.232601	0.450107	0.922086
298	H	0.268186	0.46059	0.902661
299	C	0.482954	0.243363	0.716865
300	C	0.454873	0.229322	0.674898
301	C	0.483178	0.243476	0.966429
302	C	0.451149	0.22746	0.759908
303	H	0.47368	0.238725	0.79116
304	H	0.42612	0.184648	0.76093
305	H	0.42612	0.245243	0.76093
306	C	0.454308	0.22904	0.9219
307	H	0.411505	0.207638	0.924397
308	H	0.464846	0.203964	0.902495
309	H	0.464843	0.264652	0.902495
310	C	0.317562	0.620028	0.008407
311	N	0.371325	0.647545	0.008326
312	C	0.398843	0.701308	0.008407
313	N	0.371324	0.727551	0.008327
314	C	0.317562	0.701308	0.008409
315	N	0.291316	0.647545	0.008327
316	C	0.233046	0.785821	0.008523
317	C	0.247215	0.771655	0.050378
318	C	0.275505	0.743362	0.050199
319	C	0.289546	0.729322	0.008234
320	C	0.275393	0.743476	0.299764
321	C	0.247101	0.771769	0.299906
322	C	0.291407	0.727461	0.093245
323	H	0.280144	0.738729	0.124495
324	H	0.334221	0.745246	0.094265
325	H	0.273625	0.68465	0.094266
326	C	0.232762	0.786105	0.094791
327	H	0.268503	0.811225	0.114078
328	C	0.28983	0.729042	0.255236
329	H	0.311232	0.70764	0.257732
330	H	0.314905	0.764653	0.235831
331	H	0.254219	0.703966	0.235831
332	C	0.2326	0.786267	0.255422
333	H	0.268188	0.811367	0.235997
334	C	0.233046	0.950996	0.008523
335	C	0.247215	0.979333	0.050378
336	C	0.275506	0.535917	0.050198
337	C	0.289547	0.563997	0.008233
338	C	0.275392	0.535688	0.299763
339	C	0.2471	0.979104	0.299906
340	C	0.291408	0.567719	0.093243
341	H	0.280144	0.54519	0.124494
342	H	0.273625	0.592748	0.094264
343	H	0.33422	0.592748	0.094264
344	C	0.232762	0.950428	0.094791
345	H	0.268505	0.961054	0.114078
346	C	0.289829	0.564561	0.255235
347	H	0.311231	0.607364	0.257731
348	H	0.254217	0.554026	0.23583
349	H	0.314906	0.554026	0.23583
350	C	0.2326	0.950105	0.255422
351	H	0.268188	0.960593	0.235997
352	C	0.482953	0.743362	0.050198
353	C	0.454873	0.729322	0.008233
354	C	0.48318	0.743476	0.299764
355	C	0.45115	0.727461	0.093243
356	H	0.47368	0.738725	0.124495
357	H	0.42612	0.684646	0.094264
358	H	0.42612	0.745243	0.094265
359	C	0.45431	0.729042	0.255235
360	H	0.411505	0.707636	0.257731
361	H	0.464846	0.703966	0.23583
362	H	0.464845	0.764653	0.23583
363	C	0.317562	0.620028	0.341741
364	N	0.371325	0.647545	0.34166
365	C	0.398843	0.701308	0.341741
366	N	0.371324	0.727551	0.34166
367	C	0.317562	0.701308	0.341741
368	N	0.291316	0.647545	0.34166
369	C	0.233046	0.785821	0.341856
370	C	0.247215	0.771655	0.383712
371	C	0.275505	0.743362	0.383532
372	C	0.289546	0.729322	0.341568
373	C	0.275393	0.743476	0.633096
374	C	0.247101	0.771769	0.633238
375	C	0.291407	0.727461	0.426576
376	H	0.280144	0.738729	0.457827
377	H	0.334221	0.745246	0.427598
378	H	0.273625	0.68465	0.427598
379	C	0.232762	0.786105	0.428125
380	H	0.268503	0.811225	0.447412
381	C	0.28983	0.729042	0.588568
382	H	0.311232	0.70764	0.591065
383	H	0.314905	0.764653	0.569166
384	H	0.254219	0.703966	0.569166
385	C	0.2326	0.786267	0.588754
386	H	0.268188	0.811367	0.569332
387	C	0.233046	0.950996	0.341856
388	C	0.247215	0.979333	0.383712
389	C	0.275506	0.535917	0.383529
390	C	0.289547	0.563997	0.341565
391	C	0.275392	0.535688	0.633096
392	C	0.2471	0.979104	0.633238
393	C	0.291408	0.567719	0.426576
394	H	0.280144	0.54519	0.457827
395	H	0.273625	0.592748	0.427598
396	H	0.33422	0.592748	0.427598
397	C	0.232762	0.950428	0.428125
398	H	0.268505	0.961054	0.447412
399	C	0.289829	0.564561	0.588568
400	H	0.311231	0.607364	0.591065
401	H	0.254217	0.554026	0.569162
402	H	0.314906	0.554026	0.569162
403	C	0.2326	0.950105	0.588754
404	H	0.268188	0.960593	0.569328
405	C	0.482953	0.743362	0.383532
406	C	0.454873	0.729322	0.341565
407	C	0.48318	0.743476	0.633096
408	C	0.45115	0.727461	0.426576
409	H	0.47368	0.738725	0.457827
410	H	0.42612	0.684646	0.427598
411	H	0.42612	0.745243	0.427598
412	C	0.45431	0.729042	0.588568
413	H	0.411505	0.707636	0.591065
414	H	0.464846	0.703966	0.569162
415	H	0.464845	0.764653	0.569162
416	C	0.317562	0.620028	0.675074
417	N	0.371325	0.647545	0.674993
418	C	0.398843	0.701308	0.675074
419	N	0.371324	0.727551	0.674993
420	C	0.317562	0.701308	0.675074
421	N	0.291316	0.647545	0.674993
422	C	0.233046	0.785821	0.675189
423	C	0.247215	0.771655	0.717044
424	C	0.275505	0.743362	0.716865
425	C	0.289546	0.729322	0.674901
426	C	0.275393	0.743476	0.966429
427	C	0.247101	0.771769	0.966571
428	C	0.291407	0.727461	0.759912
429	H	0.280144	0.738729	0.79116
430	H	0.334221	0.745246	0.76093
431	H	0.273625	0.68465	0.76093
432	C	0.232762	0.786105	0.761458
433	H	0.268503	0.811225	0.780745
434	C	0.28983	0.729042	0.9219
435	H	0.311232	0.70764	0.924397
436	H	0.314905	0.764653	0.902498
437	H	0.254219	0.703966	0.902498
438	C	0.2326	0.786267	0.922086
439	H	0.268188	0.811367	0.902664
440	C	0.233046	0.950996	0.675189
441	C	0.247215	0.979333	0.717044
442	C	0.275506	0.535917	0.716865
443	C	0.289547	0.563997	0.674898
444	C	0.275392	0.535688	0.966429
445	C	0.2471	0.979104	0.966571
446	C	0.291408	0.567719	0.759908
447	H	0.280144	0.54519	0.79116
448	H	0.273625	0.592748	0.76093
449	H	0.33422	0.592748	0.76093
450	C	0.232762	0.950428	0.761458
451	H	0.268505	0.961054	0.780745
452	C	0.289829	0.564561	0.9219
453	H	0.311231	0.607364	0.924397
454	H	0.254217	0.554026	0.902495
455	H	0.314906	0.554026	0.902495
456	C	0.2326	0.950105	0.922086
457	H	0.268188	0.960593	0.902661
458	C	0.482953	0.743362	0.716865
459	C	0.454873	0.729322	0.674898
460	C	0.48318	0.743476	0.966429
461	C	0.45115	0.727461	0.759908
462	H	0.47368	0.738725	0.79116
463	H	0.42612	0.684646	0.76093
464	H	0.42612	0.745243	0.76093
465	C	0.45431	0.729042	0.9219
466	H	0.411505	0.707636	0.924397
467	H	0.464846	0.703966	0.902495
468	H	0.464845	0.764653	0.902495
469	C	0.705073	0.39505	0.008566
470	N	0.65131	0.36756	0.008561
471	C	0.62382	0.313796	0.008567
472	N	0.651309	0.287522	0.008561
473	C	0.705073	0.313796	0.008566
474	N	0.731347	0.36756	0.008561
475	C	0.81756	0.120026	0.008407
476	N	0.871324	0.147544	0.008326
477	C	0.898844	0.201308	0.008407
478	N	0.871324	0.227553	0.008327
479	C	0.817561	0.201308	0.008409
480	N	0.791318	0.147544	0.008327
481	C	0.733047	0.285822	0.008523
482	C	0.747215	0.271654	0.050378
483	C	0.775506	0.243363	0.050199
484	C	0.789546	0.229323	0.008234
485	C	0.775394	0.243476	0.299764
486	C	0.747101	0.271768	0.299906
487	C	0.791409	0.227462	0.093245
488	H	0.780143	0.238727	0.124495
489	H	0.834221	0.245246	0.094265
490	H	0.773625	0.18465	0.094266
491	C	0.732762	0.286105	0.094791
492	H	0.711357	0.30751	0.092404
493	H	0.768503	0.311225	0.114078
494	H	0.707642	0.250364	0.114078
495	C	0.789828	0.229041	0.255236
496	H	0.811231	0.20764	0.257732
497	H	0.814907	0.264652	0.235831
498	H	0.754218	0.203964	0.235831
499	C	0.7326	0.286267	0.255422
500	H	0.711202	0.307665	0.257964
501	H	0.707503	0.250679	0.235997
502	H	0.768188	0.311368	0.235997
503	C	0.733047	0.450998	0.008523
504	C	0.747216	0.479334	0.050378
505	C	0.775505	0.035915	0.050198
506	C	0.789545	0.063996	0.008233
507	C	0.775392	0.035689	0.299763
508	C	0.747101	0.479106	0.299906
509	C	0.791407	0.067719	0.093243
510	H	0.780142	0.045189	0.124494
511	H	0.773624	0.092749	0.094264
512	H	0.834222	0.092748	0.094264
513	C	0.732764	0.45043	0.094791
514	H	0.711358	0.407619	0.092404
515	H	0.707644	0.461052	0.114078
516	H	0.768505	0.461052	0.114078
517	C	0.789827	0.06456	0.255235
518	H	0.811233	0.107364	0.257731
519	H	0.754218	0.054025	0.23583
520	H	0.814904	0.054025	0.23583
521	C	0.732602	0.450107	0.255422
522	H	0.711202	0.407308	0.257964
523	H	0.768189	0.46059	0.235997
524	H	0.707501	0.460594	0.235997
525	C	0.567872	0.285823	0.008523
526	C	0.539536	0.271654	0.050378
527	C	0.982956	0.243363	0.050198
528	C	0.954875	0.229322	0.008233
529	C	0.98318	0.243476	0.299764
530	C	0.539764	0.271769	0.299906
531	C	0.951151	0.22746	0.093243
532	H	0.973682	0.238725	0.124495
533	H	0.926121	0.184648	0.094264
534	H	0.926122	0.245243	0.094265
535	C	0.568438	0.286107	0.094791
536	H	0.611247	0.307512	0.092404
537	H	0.557816	0.250365	0.114078
538	H	0.557816	0.311225	0.114078
539	C	0.95431	0.22904	0.255235
540	H	0.911505	0.207638	0.257731
541	H	0.964844	0.203964	0.23583
542	H	0.964843	0.264652	0.23583
543	C	0.568765	0.286269	0.255422
544	H	0.611561	0.307668	0.257965
545	H	0.558277	0.311369	0.235997
546	H	0.558278	0.250682	0.235997
547	C	0.705073	0.39505	0.3419
548	N	0.65131	0.36756	0.341893
549	C	0.62382	0.313796	0.3419
550	N	0.651309	0.287522	0.341893
551	C	0.705073	0.313796	0.3419
552	N	0.731347	0.36756	0.341893
553	C	0.81756	0.120026	0.341741
554	N	0.871324	0.147544	0.34166
555	C	0.898844	0.201308	0.341741
556	N	0.871324	0.227553	0.34166
557	C	0.817561	0.201308	0.341741
558	N	0.791318	0.147544	0.34166
559	C	0.733047	0.285822	0.341856
560	C	0.747215	0.271654	0.383712
561	C	0.775506	0.243363	0.383532
562	C	0.789546	0.229323	0.341568
563	C	0.775394	0.243476	0.633096
564	C	0.747101	0.271768	0.633238
565	C	0.791409	0.227462	0.426576
566	H	0.780143	0.238727	0.457827
567	H	0.834221	0.245246	0.427598
568	H	0.773625	0.18465	0.427598
569	C	0.732762	0.286105	0.428125
570	H	0.711357	0.30751	0.425737
571	H	0.768503	0.311225	0.447412
572	H	0.707642	0.250364	0.447412
573	C	0.789828	0.229041	0.588568
574	H	0.811231	0.20764	0.591065
575	H	0.814907	0.264652	0.569162
576	H	0.754218	0.203964	0.569166
577	C	0.7326	0.286267	0.588754
578	H	0.711202	0.307665	0.591298
579	H	0.707503	0.250679	0.569332
580	H	0.768188	0.311368	0.569332
581	C	0.733047	0.450998	0.341856
582	C	0.747216	0.479334	0.383712
583	C	0.775505	0.035915	0.383529
584	C	0.789545	0.063996	0.341565
585	C	0.775392	0.035689	0.633096
586	C	0.747101	0.479106	0.633238
587	C	0.791407	0.067719	0.426576
588	H	0.780142	0.045189	0.457827
589	H	0.773624	0.092749	0.427598
590	H	0.834222	0.092748	0.427598
591	C	0.732764	0.45043	0.428125
592	H	0.711358	0.407619	0.425737
593	H	0.707644	0.461052	0.447412
594	H	0.768505	0.461052	0.447412
595	C	0.789827	0.06456	0.588568
596	H	0.811233	0.107364	0.591065
597	H	0.754218	0.054025	0.569162
598	H	0.814904	0.054025	0.569162
599	C	0.732602	0.450107	0.588754
600	H	0.711202	0.407308	0.591298
601	H	0.768189	0.46059	0.569328
602	H	0.707501	0.460594	0.569328
603	C	0.567872	0.285823	0.341856
604	C	0.539536	0.271654	0.383712
605	C	0.982956	0.243363	0.383532
606	C	0.954875	0.229322	0.341565
607	C	0.98318	0.243476	0.633096
608	C	0.539764	0.271769	0.633238
609	C	0.951151	0.22746	0.426576
610	H	0.973682	0.238725	0.457827
611	H	0.926121	0.184648	0.427598
612	H	0.926122	0.245243	0.427598
613	C	0.568438	0.286107	0.428125
614	H	0.611247	0.307512	0.425737
615	H	0.557816	0.250365	0.447412
616	H	0.557816	0.311225	0.447412
617	C	0.95431	0.22904	0.588568
618	H	0.911505	0.207638	0.591065
619	H	0.964844	0.203964	0.569162
620	H	0.964843	0.264652	0.569162
621	C	0.568765	0.286269	0.588754
622	H	0.611561	0.307668	0.591298
623	H	0.558277	0.311369	0.569332
624	H	0.558278	0.250682	0.569332
625	C	0.705073	0.39505	0.675233
626	N	0.65131	0.36756	0.675226
627	C	0.62382	0.313796	0.675233
628	N	0.651309	0.287522	0.675226
629	C	0.705073	0.313796	0.675233
630	N	0.731347	0.36756	0.675226
631	C	0.81756	0.120026	0.675074
632	N	0.871324	0.147544	0.674993
633	C	0.898844	0.201308	0.675074
634	N	0.871324	0.227553	0.674993
635	C	0.817561	0.201308	0.675074
636	N	0.791318	0.147544	0.674993
637	C	0.733047	0.285822	0.675189
638	C	0.747215	0.271654	0.717044
639	C	0.775506	0.243363	0.716865
640	C	0.789546	0.229323	0.674901
641	C	0.775394	0.243476	0.966429
642	C	0.747101	0.271768	0.966571
643	C	0.791409	0.227462	0.759912
644	H	0.780143	0.238727	0.79116
645	H	0.834221	0.245246	0.76093
646	H	0.773625	0.18465	0.76093
647	C	0.732762	0.286105	0.761458
648	H	0.711357	0.30751	0.759069
649	H	0.768503	0.311225	0.780745
650	H	0.707642	0.250364	0.780745
651	C	0.789828	0.229041	0.9219
652	H	0.811231	0.20764	0.924397
653	H	0.814907	0.264652	0.902498
654	H	0.754218	0.203964	0.902498
655	C	0.7326	0.286267	0.922086
656	H	0.711202	0.307665	0.924631
657	H	0.707503	0.250679	0.902664
658	H	0.768188	0.311368	0.902664
659	C	0.733047	0.450998	0.675189
660	C	0.747216	0.479334	0.717044
661	C	0.775505	0.035915	0.716865
662	C	0.789545	0.063996	0.674898
663	C	0.775392	0.035689	0.966429
664	C	0.747101	0.479106	0.966571
665	C	0.791407	0.067719	0.759908
666	H	0.780142	0.045189	0.79116
667	H	0.773624	0.092749	0.76093
668	H	0.834222	0.092748	0.76093
669	C	0.732764	0.45043	0.761458
670	H	0.711358	0.407619	0.759069
671	H	0.707644	0.461052	0.780745
672	H	0.768505	0.461052	0.780745
673	C	0.789827	0.06456	0.9219
674	H	0.811233	0.107364	0.924397
675	H	0.754218	0.054025	0.902495
676	H	0.814904	0.054025	0.902495
677	C	0.732602	0.450107	0.922086
678	H	0.711202	0.407308	0.924631
679	H	0.768189	0.46059	0.902661
680	H	0.707501	0.460594	0.902664
681	C	0.567872	0.285823	0.675189
682	C	0.539536	0.271654	0.717044
683	C	0.982956	0.243363	0.716865
684	C	0.954875	0.229322	0.674898
685	C	0.98318	0.243476	0.966429
686	C	0.539764	0.271769	0.966571
687	C	0.951151	0.22746	0.759908
688	H	0.973682	0.238725	0.79116
689	H	0.926121	0.184648	0.76093
690	H	0.926122	0.245243	0.76093
691	C	0.568438	0.286107	0.761458
692	H	0.611247	0.307512	0.759069
693	H	0.557816	0.250365	0.780745
694	H	0.557816	0.311225	0.780745
695	C	0.95431	0.22904	0.9219
696	H	0.911505	0.207638	0.924397
697	H	0.964844	0.203964	0.902495
698	H	0.964843	0.264652	0.902495
699	C	0.568765	0.286269	0.922086
700	H	0.611561	0.307668	0.924631
701	H	0.558277	0.311369	0.902664
702	H	0.558278	0.250682	0.902664
703	C	0.705073	0.895048	0.008566
704	N	0.651309	0.867559	0.008561
705	C	0.62382	0.813795	0.008567
706	N	0.651309	0.787521	0.008561
707	C	0.705073	0.813795	0.008566
708	N	0.731348	0.867559	0.008561
709	C	0.817563	0.620028	0.008407
710	N	0.871326	0.647545	0.008326
711	C	0.898843	0.701308	0.008407
712	N	0.871325	0.727551	0.008327
713	C	0.817563	0.701308	0.008409
714	N	0.791316	0.647545	0.008327
715	C	0.733046	0.785821	0.008523
716	C	0.747217	0.771655	0.050378
717	C	0.775506	0.743362	0.050199
718	C	0.789547	0.729322	0.008234
719	C	0.775393	0.743476	0.299764
720	C	0.7471	0.771769	0.299906
721	C	0.791406	0.727461	0.093245
722	H	0.780145	0.738729	0.124495
723	H	0.834223	0.745246	0.094265
724	H	0.773627	0.68465	0.094266
725	C	0.732762	0.786105	0.094791
726	H	0.711358	0.807511	0.092404
727	H	0.768505	0.811225	0.114078
728	H	0.707644	0.750364	0.114078
729	C	0.789831	0.729042	0.255236
730	H	0.811233	0.70764	0.257732
731	H	0.814906	0.764653	0.235831
732	H	0.754221	0.703966	0.235831
733	C	0.732601	0.786267	0.255422
734	H	0.711202	0.807664	0.257964
735	H	0.707502	0.75068	0.235997
736	H	0.76819	0.811367	0.235997
737	C	0.733047	0.950996	0.008523
738	C	0.747215	0.979333	0.050378
739	C	0.775507	0.535917	0.050198
740	C	0.789547	0.563997	0.008233
741	C	0.775393	0.535688	0.299763
742	C	0.747101	0.979104	0.299906
743	C	0.791408	0.567719	0.093243
744	H	0.780144	0.54519	0.124494
745	H	0.773626	0.592748	0.094264
746	H	0.83422	0.592748	0.094264
747	C	0.732763	0.950428	0.094791
748	H	0.711359	0.907622	0.092404
749	H	0.707645	0.961054	0.114078
750	H	0.768506	0.961054	0.114078
751	C	0.789829	0.564561	0.255235
752	H	0.811231	0.607364	0.257731
753	H	0.754217	0.554026	0.23583
754	H	0.814907	0.554026	0.23583
755	C	0.732601	0.950105	0.255422
756	H	0.711204	0.90731	0.257964
757	H	0.768189	0.960593	0.235997
758	H	0.707501	0.960593	0.235997
759	C	0.567873	0.785821	0.008523
760	C	0.539537	0.771655	0.050378
761	C	0.982954	0.743362	0.050198
762	C	0.954873	0.729322	0.008233
763	C	0.983181	0.743476	0.299764
764	C	0.539766	0.771769	0.299906
765	C	0.951149	0.727461	0.093243
766	H	0.97368	0.738725	0.124495
767	H	0.926122	0.684646	0.094264
768	H	0.92612	0.745243	0.094265
769	C	0.568439	0.786105	0.094791
770	H	0.611248	0.807511	0.092404
771	H	0.557817	0.750364	0.114078
772	H	0.557816	0.811225	0.114078
773	C	0.954309	0.729042	0.255235
774	H	0.911506	0.707636	0.257731
775	H	0.964847	0.703966	0.23583
776	H	0.964845	0.764653	0.23583
777	C	0.568766	0.786271	0.255422
778	H	0.611561	0.807668	0.257965
779	H	0.558278	0.811371	0.235997
780	H	0.558279	0.750684	0.235997
781	C	0.705073	0.895048	0.3419
782	N	0.651309	0.867559	0.341893
783	C	0.62382	0.813795	0.3419
784	N	0.651309	0.787521	0.341893
785	C	0.705073	0.813795	0.3419
786	N	0.731348	0.867559	0.341893
787	C	0.817563	0.620028	0.341741
788	N	0.871326	0.647545	0.34166
789	C	0.898843	0.701308	0.341741
790	N	0.871325	0.727551	0.34166
791	C	0.817563	0.701308	0.341741
792	N	0.791316	0.647545	0.34166
793	C	0.733046	0.785821	0.341856
794	C	0.747217	0.771655	0.383712
795	C	0.775506	0.743362	0.383532
796	C	0.789547	0.729322	0.341568
797	C	0.775393	0.743476	0.633096
798	C	0.7471	0.771769	0.633238
799	C	0.791406	0.727461	0.426579
800	H	0.780145	0.738729	0.457827
801	H	0.834223	0.745246	0.427598
802	H	0.773627	0.68465	0.427598
803	C	0.732762	0.786105	0.428125
804	H	0.711358	0.807511	0.425737
805	H	0.768505	0.811225	0.447412
806	H	0.707644	0.750364	0.447412
807	C	0.789831	0.729042	0.588568
808	H	0.811233	0.70764	0.591065
809	H	0.814906	0.764653	0.569166
810	H	0.754221	0.703966	0.569166
811	C	0.732601	0.786267	0.588754
812	H	0.711202	0.807664	0.591298
813	H	0.707502	0.75068	0.569332
814	H	0.76819	0.811367	0.569332
815	C	0.733047	0.950996	0.341856
816	C	0.747215	0.979333	0.383712
817	C	0.775507	0.535917	0.383529
818	C	0.789547	0.563997	0.341565
819	C	0.775393	0.535688	0.633096
820	C	0.747101	0.979104	0.633238
821	C	0.791408	0.567719	0.426576
822	H	0.780144	0.54519	0.457827
823	H	0.773626	0.592748	0.427598
824	H	0.83422	0.592748	0.427598
825	C	0.732763	0.950428	0.428125
826	H	0.711359	0.907622	0.425737
827	H	0.707645	0.961054	0.447412
828	H	0.768506	0.961054	0.447412
829	C	0.789829	0.564561	0.588568
830	H	0.811231	0.607364	0.591065
831	H	0.754217	0.554026	0.569162
832	H	0.814907	0.554026	0.569162
833	C	0.732601	0.950105	0.588754
834	H	0.711204	0.90731	0.591298
835	H	0.768189	0.960593	0.569328
836	H	0.707501	0.960593	0.569328
837	C	0.567873	0.785821	0.341856
838	C	0.539537	0.771655	0.383712
839	C	0.982954	0.743362	0.383532
840	C	0.954873	0.729322	0.341565
841	C	0.983181	0.743476	0.633096
842	C	0.539766	0.771769	0.633238
843	C	0.951149	0.727461	0.426576
844	H	0.97368	0.738725	0.457827
845	H	0.926122	0.684646	0.427598
846	H	0.92612	0.745243	0.427598
847	C	0.568439	0.786105	0.428125
848	H	0.611248	0.807511	0.425737
849	H	0.557817	0.750364	0.447412
850	H	0.557816	0.811225	0.447412
851	C	0.954309	0.729042	0.588568
852	H	0.911506	0.707636	0.591065
853	H	0.964847	0.703966	0.569162
854	H	0.964845	0.764653	0.569162
855	C	0.568766	0.786271	0.588754
856	H	0.611561	0.807668	0.591298
857	H	0.558278	0.811371	0.569332
858	H	0.558279	0.750684	0.569332
859	C	0.705073	0.895048	0.675233
860	N	0.651309	0.867559	0.675226
861	C	0.62382	0.813795	0.675233
862	N	0.651309	0.787521	0.675226
863	C	0.705073	0.813795	0.675233
864	N	0.731348	0.867559	0.675226
865	C	0.817563	0.620028	0.675074
866	N	0.871326	0.647545	0.674993
867	C	0.898843	0.701308	0.675074
868	N	0.871325	0.727551	0.674993
869	C	0.817563	0.701308	0.675074
870	N	0.791316	0.647545	0.674993
871	C	0.733046	0.785821	0.675189
872	C	0.747217	0.771655	0.717044
873	C	0.775506	0.743362	0.716865
874	C	0.789547	0.729322	0.674901
875	C	0.775393	0.743476	0.966429
876	C	0.7471	0.771769	0.966571
877	C	0.791406	0.727461	0.759912
878	H	0.780145	0.738729	0.79116
879	H	0.834223	0.745246	0.76093
880	H	0.773627	0.68465	0.76093
881	C	0.732762	0.786105	0.761458
882	H	0.711358	0.807511	0.759069
883	H	0.768505	0.811225	0.780745
884	H	0.707644	0.750364	0.780745
885	C	0.789831	0.729042	0.9219
886	H	0.811233	0.70764	0.924397
887	H	0.814906	0.764653	0.902498
888	H	0.754221	0.703966	0.902498
889	C	0.732601	0.786267	0.922086
890	H	0.711202	0.807664	0.924631
891	H	0.707502	0.75068	0.902664
892	H	0.76819	0.811367	0.902664
893	C	0.733047	0.950996	0.675189
894	C	0.747215	0.979333	0.717044
895	C	0.775507	0.535917	0.716865
896	C	0.789547	0.563997	0.674898
897	C	0.775393	0.535688	0.966429
898	C	0.747101	0.979104	0.966571
899	C	0.791408	0.567719	0.759908
900	H	0.780144	0.54519	0.79116
901	H	0.773626	0.592748	0.76093
902	H	0.83422	0.592748	0.76093
903	C	0.732763	0.950428	0.761458
904	H	0.711359	0.907622	0.759069
905	H	0.707645	0.961054	0.780745
906	H	0.768506	0.961054	0.780745
907	C	0.789829	0.564561	0.9219
908	H	0.811231	0.607364	0.924397
909	H	0.754217	0.554026	0.902495
910	H	0.814907	0.554026	0.902495
911	C	0.732601	0.950105	0.922086
912	H	0.711204	0.90731	0.924631
913	H	0.768189	0.960593	0.902661
914	H	0.707501	0.960593	0.902664
915	C	0.567873	0.785821	0.675189
916	C	0.539537	0.771655	0.717044
917	C	0.982954	0.743362	0.716865
918	C	0.954873	0.729322	0.674898
919	C	0.983181	0.743476	0.966429
920	C	0.539766	0.771769	0.966571
921	C	0.951149	0.727461	0.759908
922	H	0.97368	0.738725	0.79116
923	H	0.926122	0.684646	0.76093
924	H	0.92612	0.745243	0.76093
925	C	0.568439	0.786105	0.761458
926	H	0.611248	0.807511	0.759069
927	H	0.557817	0.750364	0.780745
928	H	0.557816	0.811225	0.780745
929	C	0.954309	0.729042	0.9219
930	H	0.911506	0.707636	0.924397
931	H	0.964847	0.703966	0.902495
932	H	0.964845	0.764653	0.902495
933	C	0.568766	0.786271	0.922086
934	H	0.611561	0.807668	0.924631
935	H	0.558278	0.811371	0.902664
936	H	0.558279	0.750684	0.902664
