data_C432H216N108O54_2018-02-15_10:36:59
#******************************************
#
# CIF file created by Zeo++
# Zeo++ is an open source package to
# analyze microporous materials
#
#*******************************************

_cell_length_a		37.074   
_cell_length_b		37.074   
_cell_length_c		29.6502   
_cell_angle_alpha		90   
_cell_angle_beta		90   
_cell_angle_gamma		120   

_symmetry_space_group_name_H-M		'P1'
_symmetry_Int_Tables_number		1
_symmetry_cell_setting		Monoclinic

loop_
_symmetry_equiv_pos_as_xyz
'+x,+y,+z'

loop_
_atom_site_label
_atom_site_type_symbol
_atom_site_fract_x
_atom_site_fract_y
_atom_site_fract_z
1	C	0.161576	0.245121	0.024313
2	N	0.181237	0.287558	0.025356
3	C	0.161134	0.309897	0.026086
4	N	0.118773	0.287146	0.025373
5	C	0.09658	0.244731	0.024477
6	N	0.119075	0.224782	0.024051
7	C	0.095346	0.844417	0.024361
8	N	0.118118	0.824752	0.025404
9	C	0.16056	0.84485	0.026139
10	N	0.180175	0.887211	0.025439
11	C	0.159956	0.909409	0.024543
12	N	0.117512	0.886916	0.024109
13	C	0.250984	0.089469	0.024333
14	N	0.293419	0.112247	0.025377
15	C	0.315756	0.154689	0.026104
16	N	0.293003	0.174297	0.025393
17	C	0.250588	0.154072	0.024497
18	N	0.230641	0.111628	0.024072
19	C	0.312942	0.54736	0.979413
20	N	0.29355	0.509711	0.000601
21	C	0.251487	0.488893	0.009345
22	N	0.229675	0.508986	0.999852
23	C	0.247462	0.546501	0.978442
24	N	0.288409	0.563503	0.968985
25	C	0.458517	0.759747	0.979704
26	N	0.496225	0.778089	0.000769
27	N	0.496972	0.71495	0.000172
28	C	0.45936	0.695141	0.978968
29	N	0.442357	0.719055	0.969373
30	C	0.246256	0.693132	0.979171
31	N	0.227972	0.712437	0.000486
32	C	0.249183	0.75448	0.009334
33	N	0.291097	0.776348	0.999896
34	C	0.310871	0.758635	0.978432
35	N	0.286952	0.71771	0.968854
36	C	0.494758	0.243333	0.009454
37	C	0.229769	0.445218	0.353708
38	C	0.249858	0.421263	0.351748
39	C	0.227363	0.377429	0.354628
40	C	0.183435	0.354807	0.026374
41	C	0.163353	0.378864	0.030582
42	H	0.243746	0.362064	0.351269
43	H	0.281236	0.435363	0.34594
44	C	0.186089	0.422805	0.027194
45	H	0.169823	0.438412	0.02848
46	O	0.121372	0.361002	0.035625
47	H	0.116035	0.357433	0.06827
48	C	0.227218	0.776177	0.353775
49	C	0.183178	0.756109	0.351768
50	C	0.161846	0.778612	0.354649
51	C	0.183156	0.822534	0.026437
52	C	0.227287	0.842598	0.03071
53	H	0.130103	0.762239	0.351235
54	H	0.165908	0.724742	0.345886
55	C	0.248485	0.819855	0.027319
56	H	0.280359	0.836123	0.028586
57	O	0.251418	0.88458	0.035738
58	H	0.253178	0.889927	0.06838
59	C	0.451074	0.22137	0.353782
60	C	0.427126	0.177325	0.351832
61	C	0.383287	0.155989	0.354672
62	C	0.360666	0.177295	0.026417
63	C	0.38472	0.221429	0.030671
64	H	0.367925	0.124251	0.351215
65	H	0.441219	0.160057	0.345917
66	C	0.42866	0.242635	0.027274
67	H	0.44427	0.274508	0.028574
68	O	0.366861	0.245554	0.03567
69	H	0.363268	0.247325	0.068308
70	C	0.228455	0.176664	0.02391
71	C	0.184624	0.156468	0.028632
72	C	0.163218	0.178995	0.028604
73	C	0.184281	0.222946	0.356925
74	C	0.228282	0.243216	0.351242
75	H	0.131563	0.162518	0.03283
76	H	0.167609	0.124843	0.032802
77	C	0.249566	0.220495	0.35194
78	H	0.281246	0.236682	0.34794
79	O	0.252141	0.285156	0.345556
80	H	0.252986	0.290177	0.312893
81	C	0.027584	0.842788	0.028644
82	C	0.050466	0.821718	0.356969
83	C	0.026728	0.777715	0.351293
84	H	0.042765	0.874445	0.032845
85	O	0.044803	0.753851	0.345617
86	H	0.048978	0.752998	0.312955
87	C	0.182544	0.954131	0.023959
88	C	0.162344	0.977765	0.02867
89	C	0.184865	0.021696	0.028633
90	C	0.228816	0.044589	0.356956
91	C	0.249093	0.020861	0.351293
92	H	0.16838	0.036871	0.032824
93	H	0.130715	0.963151	0.032809
94	C	0.226376	0.976855	0.352001
95	H	0.242568	0.961367	0.348021
96	O	0.291035	0.038946	0.34563
97	H	0.296069	0.043113	0.312969
98	C	0.051858	0.222603	0.023884
99	C	0.028218	0.178772	0.028608
100	H	0.042825	0.161754	0.032783
101	C	0.029143	0.243718	0.3519
102	H	0.044638	0.275397	0.347897
103	C	0.23056	0.650117	0.970999
104	C	0.206947	0.618563	0.002998
105	C	0.207373	0.580406	0.002584
106	C	0.230907	0.573037	0.303204
107	C	0.246654	0.600969	0.266066
108	H	0.196764	0.561893	0.030665
109	H	0.196137	0.625879	0.031304
110	C	0.246883	0.638823	0.267266
111	H	0.262646	0.65999	0.242178
112	O	0.267237	0.595655	0.230838
113	H	0.246699	0.570589	0.214627
114	C	0.355987	0.574548	0.971269
115	C	0.387421	0.582639	0.003467
116	C	0.425579	0.621182	0.003093
117	C	0.432992	0.652032	0.303643
118	C	0.405138	0.63987	0.266427
119	H	0.44421	0.629131	0.031091
120	H	0.380135	0.56436	0.031658
121	C	0.367334	0.602165	0.267521
122	H	0.346205	0.596801	0.242404
123	O	0.410482	0.665771	0.231196
124	H	0.43563	0.670399	0.215089
125	C	0.431373	0.775607	0.971299
126	C	0.423368	0.799184	0.003285
127	C	0.384815	0.798807	0.002732
128	C	0.353985	0.775205	0.303299
129	C	0.366253	0.75952	0.266174
130	H	0.376708	0.809257	0.030791
131	H	0.441375	0.809883	0.031685
132	C	0.403947	0.759426	0.267407
133	H	0.409348	0.743598	0.242394
134	O	0.340439	0.739038	0.230855
135	H	0.336017	0.759644	0.21464
136	C	0.161576	0.245121	0.357647
137	N	0.181237	0.287558	0.358689
138	C	0.161134	0.309897	0.359421
139	N	0.118773	0.287146	0.358706
140	C	0.09658	0.244731	0.357812
141	N	0.119075	0.224782	0.357384
142	C	0.095346	0.844417	0.357694
143	N	0.118118	0.824752	0.358736
144	C	0.16056	0.84485	0.359472
145	N	0.180175	0.887211	0.358773
146	C	0.159956	0.909409	0.357876
147	N	0.117512	0.886916	0.357441
148	C	0.250984	0.089469	0.357667
149	N	0.293419	0.112247	0.358709
150	C	0.315756	0.154689	0.359438
151	N	0.293003	0.174297	0.358726
152	C	0.250588	0.154072	0.357829
153	N	0.230641	0.111628	0.357404
154	C	0.312942	0.54736	0.312748
155	N	0.29355	0.509711	0.333934
156	C	0.251487	0.488893	0.342679
157	N	0.229675	0.508986	0.333185
158	C	0.247462	0.546501	0.311775
159	N	0.288409	0.563503	0.302318
160	C	0.458517	0.759747	0.313037
161	N	0.496225	0.778089	0.334103
162	N	0.496972	0.71495	0.333507
163	C	0.45936	0.695141	0.312301
164	N	0.442357	0.719055	0.302708
165	C	0.246256	0.693132	0.312505
166	N	0.227972	0.712437	0.333819
167	C	0.249183	0.75448	0.342669
168	N	0.291097	0.776348	0.33323
169	C	0.310871	0.758635	0.311766
170	N	0.286952	0.71771	0.302186
171	C	0.494758	0.243333	0.342787
172	C	0.229769	0.445218	0.687041
173	C	0.249858	0.421263	0.685082
174	C	0.227363	0.377429	0.687962
175	C	0.183435	0.354807	0.359708
176	C	0.163353	0.378864	0.363917
177	H	0.243746	0.362064	0.684603
178	H	0.281236	0.435363	0.679274
179	C	0.186089	0.422805	0.360527
180	H	0.169823	0.438412	0.361812
181	O	0.121372	0.361002	0.368959
182	H	0.116035	0.357433	0.401603
183	C	0.227218	0.776177	0.687108
184	C	0.183178	0.756109	0.685102
185	C	0.161846	0.778612	0.687982
186	C	0.183156	0.822534	0.359772
187	C	0.227287	0.842598	0.364041
188	H	0.130103	0.762239	0.684569
189	H	0.165908	0.724742	0.67922
190	C	0.248485	0.819855	0.360652
191	H	0.280359	0.836123	0.36192
192	O	0.251418	0.88458	0.36907
193	H	0.253178	0.889927	0.401714
194	C	0.451074	0.22137	0.687115
195	C	0.427126	0.177325	0.685166
196	C	0.383287	0.155989	0.688006
197	C	0.360666	0.177295	0.359751
198	C	0.38472	0.221429	0.364004
199	H	0.367925	0.124251	0.684549
200	H	0.441219	0.160057	0.67925
201	C	0.42866	0.242635	0.360608
202	H	0.44427	0.274508	0.361907
203	O	0.366861	0.245554	0.369003
204	H	0.363268	0.247325	0.40164
205	C	0.228455	0.176664	0.357242
206	C	0.184624	0.156468	0.361964
207	C	0.163218	0.178995	0.361937
208	C	0.184281	0.222946	0.690259
209	C	0.228282	0.243216	0.684576
210	H	0.131563	0.162518	0.366163
211	H	0.167609	0.124843	0.366136
212	C	0.249566	0.220495	0.685274
213	H	0.281246	0.236682	0.681274
214	O	0.252141	0.285156	0.678889
215	H	0.252986	0.290177	0.646225
216	C	0.027584	0.842788	0.361977
217	C	0.050466	0.821718	0.690302
218	C	0.026728	0.777715	0.684626
219	H	0.042765	0.874445	0.36618
220	O	0.044803	0.753851	0.67895
221	H	0.048978	0.752998	0.646289
222	C	0.182544	0.954131	0.357293
223	C	0.162344	0.977765	0.362004
224	C	0.184865	0.021696	0.361967
225	C	0.228816	0.044589	0.690289
226	C	0.249093	0.020861	0.684626
227	H	0.16838	0.036871	0.366156
228	H	0.130715	0.963151	0.366143
229	C	0.226376	0.976855	0.685334
230	H	0.242568	0.961367	0.681355
231	O	0.291035	0.038946	0.678964
232	H	0.296069	0.043113	0.646303
233	C	0.051858	0.222603	0.357219
234	C	0.028218	0.178772	0.36194
235	H	0.042825	0.161754	0.366116
236	C	0.029143	0.243718	0.685233
237	H	0.044638	0.275397	0.68123
238	C	0.23056	0.650117	0.304334
239	C	0.206947	0.618563	0.336332
240	C	0.207373	0.580406	0.335916
241	C	0.230907	0.573037	0.636539
242	C	0.246654	0.600969	0.599399
243	H	0.196764	0.561893	0.363998
244	H	0.196137	0.625879	0.364638
245	C	0.246883	0.638823	0.6006
246	H	0.262646	0.65999	0.575511
247	O	0.267237	0.595655	0.564172
248	H	0.246699	0.570589	0.547959
249	C	0.355987	0.574548	0.304603
250	C	0.387421	0.582639	0.336801
251	C	0.425579	0.621182	0.336427
252	C	0.432992	0.652032	0.636977
253	C	0.405138	0.63987	0.59976
254	H	0.44421	0.629131	0.364423
255	H	0.380135	0.56436	0.364993
256	C	0.367334	0.602165	0.600853
257	H	0.346205	0.596801	0.575737
258	O	0.410482	0.665771	0.564529
259	H	0.43563	0.670399	0.548421
260	C	0.431373	0.775607	0.304634
261	C	0.423368	0.799184	0.336619
262	C	0.384815	0.798807	0.336065
263	C	0.353985	0.775205	0.636633
264	C	0.366253	0.75952	0.599507
265	H	0.376708	0.809257	0.364122
266	H	0.441375	0.809883	0.36502
267	C	0.403947	0.759426	0.600741
268	H	0.409348	0.743598	0.575726
269	O	0.340439	0.739038	0.564189
270	H	0.336017	0.759644	0.547973
271	C	0.161576	0.245121	0.69098
272	N	0.181237	0.287558	0.692022
273	C	0.161134	0.309897	0.692754
274	N	0.118773	0.287146	0.692039
275	C	0.09658	0.244731	0.691142
276	N	0.119075	0.224782	0.690717
277	C	0.095346	0.844417	0.691028
278	N	0.118118	0.824752	0.69207
279	C	0.16056	0.84485	0.692805
280	N	0.180175	0.887211	0.692107
281	C	0.159956	0.909409	0.69121
282	N	0.117512	0.886916	0.690775
283	C	0.250984	0.089469	0.691001
284	N	0.293419	0.112247	0.692043
285	C	0.315756	0.154689	0.692771
286	N	0.293003	0.174297	0.69206
287	C	0.250588	0.154072	0.691162
288	N	0.230641	0.111628	0.690737
289	C	0.312942	0.54736	0.64608
290	N	0.29355	0.509711	0.667267
291	C	0.251487	0.488893	0.676012
292	N	0.229675	0.508986	0.666518
293	C	0.247462	0.546501	0.645109
294	N	0.288409	0.563503	0.635652
295	C	0.458517	0.759747	0.64637
296	N	0.496225	0.778089	0.667436
297	N	0.496972	0.71495	0.666839
298	C	0.45936	0.695141	0.645635
299	N	0.442357	0.719055	0.63604
300	C	0.246256	0.693132	0.645837
301	N	0.227972	0.712437	0.667152
302	C	0.249183	0.75448	0.675999
303	N	0.291097	0.776348	0.666562
304	C	0.310871	0.758635	0.645099
305	N	0.286952	0.71771	0.63552
306	C	0.494758	0.243333	0.67612
307	C	0.229769	0.445218	0.020375
308	C	0.249858	0.421263	0.018416
309	C	0.227363	0.377429	0.021296
310	C	0.183435	0.354807	0.693041
311	C	0.163353	0.378864	0.69725
312	H	0.243746	0.362064	0.017935
313	H	0.281236	0.435363	0.012606
314	C	0.186089	0.422805	0.693861
315	H	0.169823	0.438412	0.695146
316	O	0.121372	0.361002	0.702292
317	H	0.116035	0.357433	0.734936
318	C	0.227218	0.776177	0.020443
319	C	0.183178	0.756109	0.018437
320	C	0.161846	0.778612	0.021314
321	C	0.183156	0.822534	0.693105
322	C	0.227287	0.842598	0.697375
323	H	0.130103	0.762239	0.017901
324	H	0.165908	0.724742	0.012554
325	C	0.248485	0.819855	0.693985
326	H	0.280359	0.836123	0.695253
327	O	0.251418	0.88458	0.702403
328	H	0.253178	0.889927	0.735047
329	C	0.451074	0.22137	0.020449
330	C	0.427126	0.177325	0.0185
331	C	0.383287	0.155989	0.02134
332	C	0.360666	0.177295	0.693085
333	C	0.38472	0.221429	0.697338
334	H	0.367925	0.124251	0.017883
335	H	0.441219	0.160057	0.012584
336	C	0.42866	0.242635	0.693941
337	H	0.44427	0.274508	0.69524
338	O	0.366861	0.245554	0.702336
339	H	0.363268	0.247325	0.734973
340	C	0.228455	0.176664	0.690576
341	C	0.184624	0.156468	0.695297
342	C	0.163218	0.178995	0.69527
343	C	0.184281	0.222946	0.023591
344	C	0.228282	0.243216	0.017908
345	H	0.131563	0.162518	0.699496
346	H	0.167609	0.124843	0.699469
347	C	0.249566	0.220495	0.018606
348	H	0.281246	0.236682	0.014607
349	O	0.252141	0.285156	0.012223
350	H	0.252986	0.290177	0.979559
351	C	0.027584	0.842788	0.695311
352	C	0.050466	0.821718	0.023636
353	C	0.026728	0.777715	0.017958
354	H	0.042765	0.874445	0.699513
355	O	0.044803	0.753851	0.012285
356	H	0.048978	0.752998	0.979623
357	C	0.182544	0.954131	0.690626
358	C	0.162344	0.977765	0.695338
359	C	0.184865	0.021696	0.695301
360	C	0.228816	0.044589	0.023623
361	C	0.249093	0.020861	0.017958
362	H	0.16838	0.036871	0.69949
363	H	0.130715	0.963151	0.699476
364	C	0.226376	0.976855	0.018667
365	H	0.242568	0.961367	0.014687
366	O	0.291035	0.038946	0.012298
367	H	0.296069	0.043113	0.979636
368	C	0.051858	0.222603	0.690552
369	C	0.028218	0.178772	0.695274
370	H	0.042825	0.161754	0.699449
371	C	0.029143	0.243718	0.018568
372	H	0.044638	0.275397	0.014565
373	C	0.23056	0.650117	0.637665
374	C	0.206947	0.618563	0.669665
375	C	0.207373	0.580406	0.66925
376	C	0.230907	0.573037	0.969872
377	C	0.246654	0.600969	0.932733
378	H	0.196764	0.561893	0.697331
379	H	0.196137	0.625879	0.697972
380	C	0.246883	0.638823	0.933933
381	H	0.262646	0.65999	0.908844
382	O	0.267237	0.595655	0.897505
383	H	0.246699	0.570589	0.881293
384	C	0.355987	0.574548	0.637935
385	C	0.387421	0.582639	0.670134
386	C	0.425579	0.621182	0.66976
387	C	0.432992	0.652032	0.970311
388	C	0.405138	0.63987	0.933093
389	H	0.44421	0.629131	0.697756
390	H	0.380135	0.56436	0.698326
391	C	0.367334	0.602165	0.934186
392	H	0.346205	0.596801	0.90907
393	O	0.410482	0.665771	0.897863
394	H	0.43563	0.670399	0.881755
395	C	0.431373	0.775607	0.637965
396	C	0.423368	0.799184	0.669952
397	C	0.384815	0.798807	0.669399
398	C	0.353985	0.775205	0.969967
399	C	0.366253	0.75952	0.93284
400	H	0.376708	0.809257	0.697456
401	H	0.441375	0.809883	0.698353
402	C	0.403947	0.759426	0.934075
403	H	0.409348	0.743598	0.90906
404	O	0.340439	0.739038	0.897522
405	H	0.336017	0.759644	0.881306
406	C	0.760874	0.910689	0.024252
407	N	0.718438	0.887915	0.025295
408	C	0.696098	0.845473	0.026024
409	N	0.718848	0.82586	0.025334
410	C	0.761263	0.846083	0.02444
411	N	0.781213	0.888526	0.024004
412	C	0.85029	0.755044	0.02431
413	N	0.830628	0.712608	0.02535
414	C	0.850729	0.69027	0.026089
415	N	0.89309	0.713019	0.025399
416	C	0.915285	0.755433	0.024507
417	N	0.892791	0.775385	0.024067
418	C	0.916523	0.155737	0.024256
419	N	0.893754	0.175403	0.025292
420	C	0.851311	0.155307	0.026014
421	N	0.831695	0.112944	0.025319
422	C	0.851914	0.090747	0.02443
423	N	0.894356	0.113237	0.024003
424	C	0.517074	0.756879	0.009556
425	C	0.69904	0.452867	0.97912
426	N	0.718346	0.490444	0.000452
427	C	0.760394	0.511287	0.009259
428	N	0.782266	0.491251	0.999788
429	C	0.764553	0.453764	0.978321
430	N	0.723621	0.436755	0.968776
431	C	0.553295	0.240403	0.97966
432	N	0.515601	0.222101	0.000752
433	N	0.514845	0.285243	0.999977
434	C	0.552408	0.304993	0.978668
435	N	0.569431	0.281069	0.969211
436	C	0.76558	0.307148	0.979636
437	N	0.783925	0.287788	0.000705
438	C	0.762712	0.245735	0.009522
439	N	0.720777	0.223908	0.000165
440	C	0.700968	0.24171	0.978958
441	N	0.724878	0.282621	0.969336
442	C	0.560766	0.778821	0.353836
443	C	0.584735	0.822861	0.351778
444	C	0.628575	0.84419	0.354585
445	C	0.651188	0.822877	0.026361
446	C	0.627124	0.778749	0.030661
447	H	0.643947	0.875921	0.351063
448	H	0.570648	0.840131	0.345839
449	C	0.583178	0.757554	0.027343
450	H	0.567562	0.725683	0.028685
451	O	0.644979	0.754627	0.035728
452	H	0.648581	0.752904	0.068373
453	C	0.782083	0.554935	0.353745
454	C	0.762006	0.578902	0.351755
455	C	0.784505	0.62274	0.354595
456	C	0.828428	0.645361	0.026389
457	C	0.848502	0.621301	0.030636
458	H	0.768129	0.638104	0.351168
459	H	0.730651	0.564815	0.345805
460	C	0.825763	0.57736	0.027251
461	H	0.84204	0.561762	0.028515
462	O	0.890483	0.639163	0.035692
463	H	0.895811	0.642735	0.068338
464	C	0.784675	0.224003	0.353789
465	C	0.828711	0.24406	0.351721
466	C	0.850036	0.221549	0.354547
467	C	0.828722	0.177625	0.026334
468	C	0.78459	0.157565	0.030622
469	H	0.881779	0.237917	0.351121
470	H	0.84599	0.275435	0.345886
471	C	0.763403	0.180321	0.027285
472	H	0.731529	0.164062	0.028608
473	O	0.760457	0.115584	0.035645
474	H	0.758708	0.110231	0.068285
475	C	0.829321	0.046024	0.023851
476	C	0.849518	0.022389	0.028589
477	C	0.826997	0.978459	0.028553
478	C	0.783046	0.955567	0.356864
479	C	0.762773	0.979297	0.351171
480	H	0.843474	0.963282	0.032777
481	H	0.881146	0.037001	0.032746
482	C	0.785493	0.023302	0.351873
483	H	0.769305	0.038793	0.347873
484	O	0.720833	0.961214	0.345495
485	H	0.715808	0.957037	0.312832
486	C	0.96001	0.777559	0.023936
487	C	0.983651	0.821388	0.028667
488	H	0.969044	0.838412	0.032802
489	C	0.982723	0.756442	0.351974
490	H	0.967228	0.724761	0.347984
491	C	0.783398	0.823493	0.023869
492	C	0.82723	0.843691	0.028602
493	C	0.848637	0.821167	0.028587
494	C	0.827582	0.777217	0.356908
495	C	0.783581	0.756944	0.351219
496	H	0.880293	0.837649	0.032819
497	H	0.84424	0.875317	0.032771
498	C	0.762291	0.779662	0.3519
499	H	0.730611	0.763472	0.3479
500	O	0.759724	0.715003	0.345536
501	H	0.758882	0.709979	0.312873
502	C	0.984285	0.157371	0.028579
503	C	0.961401	0.178437	0.356878
504	C	0.985139	0.222438	0.351192
505	H	0.969104	0.125714	0.032792
506	O	0.967062	0.246299	0.345492
507	H	0.962892	0.247141	0.312826
508	C	0.781454	0.350154	0.971238
509	C	0.804949	0.381733	0.003265
510	C	0.804673	0.419952	0.002675
511	C	0.781145	0.427231	0.303222
512	C	0.765413	0.399262	0.266111
513	H	0.815274	0.438515	0.030724
514	H	0.815817	0.374398	0.031518
515	C	0.765196	0.36141	0.267411
516	H	0.7494	0.340181	0.24239
517	O	0.744861	0.404525	0.230813
518	H	0.76541	0.429585	0.214601
519	C	0.656017	0.425477	0.971063
520	C	0.624546	0.417523	0.003157
521	C	0.586356	0.379008	0.002766
522	C	0.578866	0.348086	0.303363
523	C	0.606834	0.360202	0.266241
524	H	0.567668	0.371134	0.030711
525	H	0.631801	0.435868	0.031293
526	C	0.64468	0.397851	0.267341
527	H	0.665798	0.403214	0.24221
528	O	0.601369	0.334301	0.230967
529	H	0.576335	0.329909	0.214791
530	C	0.580469	0.224556	0.971376
531	C	0.588429	0.201005	0.003444
532	C	0.626987	0.201393	0.003022
533	C	0.657859	0.224986	0.303633
534	C	0.645672	0.240646	0.266421
535	H	0.635067	0.191	0.03115
536	H	0.570374	0.190325	0.031813
537	C	0.607972	0.240732	0.26754
538	H	0.602556	0.25649	0.242459
539	O	0.671553	0.261129	0.231151
540	H	0.6761	0.240552	0.215049
541	C	0.760874	0.910689	0.357586
542	N	0.718438	0.887915	0.358628
543	C	0.696098	0.845473	0.359357
544	N	0.718848	0.82586	0.358669
545	C	0.761263	0.846083	0.357775
546	N	0.781213	0.888526	0.357337
547	C	0.85029	0.755044	0.357644
548	N	0.830628	0.712608	0.358682
549	C	0.850729	0.69027	0.359421
550	N	0.89309	0.713019	0.358733
551	C	0.915285	0.755433	0.357839
552	N	0.892791	0.775385	0.357401
553	C	0.916523	0.155737	0.35759
554	N	0.893754	0.175403	0.358625
555	C	0.851311	0.155307	0.359347
556	N	0.831695	0.112944	0.358652
557	C	0.851914	0.090747	0.357762
558	N	0.894356	0.113237	0.357337
559	C	0.517074	0.756879	0.342888
560	C	0.69904	0.452867	0.312454
561	N	0.718346	0.490444	0.333787
562	C	0.760394	0.511287	0.342591
563	N	0.782266	0.491251	0.33312
564	C	0.764553	0.453764	0.311655
565	N	0.723621	0.436755	0.30211
566	C	0.553295	0.240403	0.312994
567	N	0.515601	0.222101	0.334084
568	N	0.514845	0.285243	0.333311
569	C	0.552408	0.304993	0.312003
570	N	0.569431	0.281069	0.302546
571	C	0.76558	0.307148	0.312968
572	N	0.783925	0.287788	0.33404
573	C	0.762712	0.245735	0.342854
574	N	0.720777	0.223908	0.333499
575	C	0.700968	0.24171	0.312292
576	N	0.724878	0.282621	0.302668
577	C	0.560766	0.778821	0.687169
578	C	0.584735	0.822861	0.685112
579	C	0.628575	0.84419	0.687918
580	C	0.651188	0.822877	0.359694
581	C	0.627124	0.778749	0.363994
582	H	0.643947	0.875921	0.684397
583	H	0.570648	0.840131	0.679173
584	C	0.583178	0.757554	0.360676
585	H	0.567562	0.725683	0.362018
586	O	0.644979	0.754627	0.36906
587	H	0.648581	0.752904	0.401707
588	C	0.782083	0.554935	0.687078
589	C	0.762006	0.578902	0.685088
590	C	0.784505	0.62274	0.687928
591	C	0.828428	0.645361	0.359721
592	C	0.848502	0.621301	0.363967
593	H	0.768129	0.638104	0.684501
594	H	0.730651	0.564815	0.679139
595	C	0.825763	0.57736	0.360584
596	H	0.84204	0.561762	0.361849
597	O	0.890483	0.639163	0.369026
598	H	0.895811	0.642735	0.40167
599	C	0.784675	0.224003	0.687122
600	C	0.828711	0.24406	0.685055
601	C	0.850036	0.221549	0.687881
602	C	0.828722	0.177625	0.359667
603	C	0.78459	0.157565	0.363954
604	H	0.881779	0.237917	0.684454
605	H	0.84599	0.275435	0.67922
606	C	0.763403	0.180321	0.360618
607	H	0.731529	0.164062	0.36194
608	O	0.760457	0.115584	0.368979
609	H	0.758708	0.110231	0.40162
610	C	0.829321	0.046024	0.357185
611	C	0.849518	0.022389	0.361923
612	C	0.826997	0.978459	0.361886
613	C	0.783046	0.955567	0.690198
614	C	0.762773	0.979297	0.684505
615	H	0.843474	0.963282	0.366109
616	H	0.881146	0.037001	0.366079
617	C	0.785493	0.023302	0.685206
618	H	0.769305	0.038793	0.681206
619	O	0.720833	0.961214	0.678829
620	H	0.715808	0.957037	0.646164
621	C	0.96001	0.777559	0.357269
622	C	0.983651	0.821388	0.362001
623	H	0.969044	0.838412	0.366136
624	C	0.982723	0.756442	0.685307
625	H	0.967228	0.724761	0.681318
626	C	0.783398	0.823493	0.357202
627	C	0.82723	0.843691	0.361937
628	C	0.848637	0.821167	0.36192
629	C	0.827582	0.777217	0.690242
630	C	0.783581	0.756944	0.684552
631	H	0.880293	0.837649	0.366153
632	H	0.84424	0.875317	0.366106
633	C	0.762291	0.779662	0.685233
634	H	0.730611	0.763472	0.681233
635	O	0.759724	0.715003	0.678869
636	H	0.758882	0.709979	0.646205
637	C	0.984285	0.157371	0.361913
638	C	0.961401	0.178437	0.690211
639	C	0.985139	0.222438	0.684525
640	H	0.969104	0.125714	0.366126
641	O	0.967062	0.246299	0.678825
642	H	0.962892	0.247141	0.646158
643	C	0.781454	0.350154	0.304572
644	C	0.804949	0.381733	0.336599
645	C	0.804673	0.419952	0.33601
646	C	0.781145	0.427231	0.636556
647	C	0.765413	0.399262	0.599443
648	H	0.815274	0.438515	0.364058
649	H	0.815817	0.374398	0.364851
650	C	0.765196	0.36141	0.600745
651	H	0.7494	0.340181	0.575723
652	O	0.744861	0.404525	0.564148
653	H	0.76541	0.429585	0.547936
654	C	0.656017	0.425477	0.304397
655	C	0.624546	0.417523	0.336492
656	C	0.586356	0.379008	0.336101
657	C	0.578866	0.348086	0.636697
658	C	0.606834	0.360202	0.599574
659	H	0.567668	0.371134	0.364045
660	H	0.631801	0.435868	0.364625
661	C	0.64468	0.397851	0.600674
662	H	0.665798	0.403214	0.575544
663	O	0.601369	0.334301	0.5643
664	H	0.576335	0.329909	0.548125
665	C	0.580469	0.224556	0.30471
666	C	0.588429	0.201005	0.336778
667	C	0.626987	0.201393	0.336357
668	C	0.657859	0.224986	0.636967
669	C	0.645672	0.240646	0.599753
670	H	0.635067	0.191	0.364483
671	H	0.570374	0.190325	0.365144
672	C	0.607972	0.240732	0.600873
673	H	0.602556	0.25649	0.575794
674	O	0.671553	0.261129	0.564485
675	H	0.6761	0.240552	0.548381
676	C	0.760874	0.910689	0.69092
677	N	0.718438	0.887915	0.691962
678	C	0.696098	0.845473	0.69269
679	N	0.718848	0.82586	0.691999
680	C	0.761263	0.846083	0.691108
681	N	0.781213	0.888526	0.69067
682	C	0.85029	0.755044	0.690977
683	N	0.830628	0.712608	0.692016
684	C	0.850729	0.69027	0.692754
685	N	0.89309	0.713019	0.692066
686	C	0.915285	0.755433	0.691173
687	N	0.892791	0.775385	0.690734
688	C	0.916523	0.155737	0.690923
689	N	0.893754	0.175403	0.691958
690	C	0.851311	0.155307	0.69268
691	N	0.831695	0.112944	0.691985
692	C	0.851914	0.090747	0.691095
693	N	0.894356	0.113237	0.69067
694	C	0.517074	0.756879	0.676222
695	C	0.69904	0.452867	0.645787
696	N	0.718346	0.490444	0.667119
697	C	0.760394	0.511287	0.675925
698	N	0.782266	0.491251	0.666454
699	C	0.764553	0.453764	0.644987
700	N	0.723621	0.436755	0.635443
701	C	0.553295	0.240403	0.646326
702	N	0.515601	0.222101	0.667419
703	N	0.514845	0.285243	0.666643
704	C	0.552408	0.304993	0.645335
705	N	0.569431	0.281069	0.635878
706	C	0.76558	0.307148	0.646303
707	N	0.783925	0.287788	0.667372
708	C	0.762712	0.245735	0.676188
709	N	0.720777	0.223908	0.666832
710	C	0.700968	0.24171	0.645625
711	N	0.724878	0.282621	0.636003
712	C	0.560766	0.778821	0.020503
713	C	0.584735	0.822861	0.018446
714	C	0.628575	0.84419	0.021252
715	C	0.651188	0.822877	0.693028
716	C	0.627124	0.778749	0.697328
717	H	0.643947	0.875921	0.017732
718	H	0.570648	0.840131	0.012505
719	C	0.583178	0.757554	0.694009
720	H	0.567562	0.725683	0.695351
721	O	0.644979	0.754627	0.702393
722	H	0.648581	0.752904	0.735041
723	C	0.782083	0.554935	0.020412
724	C	0.762006	0.578902	0.018423
725	C	0.784505	0.62274	0.021263
726	C	0.828428	0.645361	0.693054
727	C	0.848502	0.621301	0.697301
728	H	0.768129	0.638104	0.017836
729	H	0.730651	0.564815	0.012472
730	C	0.825763	0.57736	0.693918
731	H	0.84204	0.561762	0.695183
732	O	0.890483	0.639163	0.70236
733	H	0.895811	0.642735	0.735004
734	C	0.784675	0.224003	0.020456
735	C	0.828711	0.24406	0.018387
736	C	0.850036	0.221549	0.021214
737	C	0.828722	0.177625	0.693001
738	C	0.78459	0.157565	0.697287
739	H	0.881779	0.237917	0.017787
740	H	0.84599	0.275435	0.012555
741	C	0.763403	0.180321	0.693952
742	H	0.731529	0.164062	0.695274
743	O	0.760457	0.115584	0.702312
744	H	0.758708	0.110231	0.734953
745	C	0.829321	0.046024	0.690518
746	C	0.849518	0.022389	0.695257
747	C	0.826997	0.978459	0.69522
748	C	0.783046	0.955567	0.023531
749	C	0.762773	0.979297	0.01784
750	H	0.843474	0.963282	0.699442
751	H	0.881146	0.037001	0.699412
752	C	0.785493	0.023302	0.01854
753	H	0.769305	0.038793	0.014541
754	O	0.720833	0.961214	0.012162
755	H	0.715808	0.957037	0.979498
756	C	0.96001	0.777559	0.690603
757	C	0.983651	0.821388	0.695334
758	H	0.969044	0.838412	0.699469
759	C	0.982723	0.756442	0.018641
760	H	0.967228	0.724761	0.01465
761	C	0.783398	0.823493	0.690535
762	C	0.82723	0.843691	0.695267
763	C	0.848637	0.821167	0.695253
764	C	0.827582	0.777217	0.023576
765	C	0.783581	0.756944	0.017884
766	H	0.880293	0.837649	0.699486
767	H	0.84424	0.875317	0.699439
768	C	0.762291	0.779662	0.018567
769	H	0.730611	0.763472	0.014566
770	O	0.759724	0.715003	0.012202
771	H	0.758882	0.709979	0.979538
772	C	0.984285	0.157371	0.695247
773	C	0.961401	0.178437	0.023545
774	C	0.985139	0.222438	0.017859
775	H	0.969104	0.125714	0.699459
776	O	0.967062	0.246299	0.012158
777	H	0.962892	0.247141	0.979491
778	C	0.781454	0.350154	0.637905
779	C	0.804949	0.381733	0.669932
780	C	0.804673	0.419952	0.669341
781	C	0.781145	0.427231	0.969889
782	C	0.765413	0.399262	0.932776
783	H	0.815274	0.438515	0.697392
784	H	0.815817	0.374398	0.698184
785	C	0.765196	0.36141	0.934078
786	H	0.7494	0.340181	0.909056
787	O	0.744861	0.404525	0.897478
788	H	0.76541	0.429585	0.881266
789	C	0.656017	0.425477	0.637729
790	C	0.624546	0.417523	0.669827
791	C	0.586356	0.379008	0.669432
792	C	0.578866	0.348086	0.970031
793	C	0.606834	0.360202	0.932908
794	H	0.567668	0.371134	0.697378
795	H	0.631801	0.435868	0.697958
796	C	0.64468	0.397851	0.934007
797	H	0.665798	0.403214	0.908878
798	O	0.601369	0.334301	0.897633
799	H	0.576335	0.329909	0.881458
800	C	0.580469	0.224556	0.638043
801	C	0.588429	0.201005	0.67011
802	C	0.626987	0.201393	0.669692
803	C	0.657859	0.224986	0.970301
804	C	0.645672	0.240646	0.933087
805	H	0.635067	0.191	0.697817
806	H	0.570374	0.190325	0.698478
807	C	0.607972	0.240732	0.934206
808	H	0.602556	0.25649	0.909127
809	O	0.671553	0.261129	0.897819
810	H	0.6761	0.240552	0.881714
