data_C360H360N288_2018-02-15_10:44:55
#******************************************
#
# CIF file created by Zeo++
# Zeo++ is an open source package to
# analyze microporous materials
#
#*******************************************

_cell_length_a		45.6049   
_cell_length_b		45.6049   
_cell_length_c		29.2704   
_cell_angle_alpha		90   
_cell_angle_beta		90   
_cell_angle_gamma		120   

_symmetry_space_group_name_H-M		'P1'
_symmetry_Int_Tables_number		1
_symmetry_cell_setting		Monoclinic

loop_
_symmetry_equiv_pos_as_xyz
'+x,+y,+z'

loop_
_atom_site_label
_atom_site_type_symbol
_atom_site_fract_x
_atom_site_fract_y
_atom_site_fract_z
1	C	0.194444	0.379623	0.013274
2	N	0.161195	0.354599	0.013193
3	C	0.151544	0.321048	0.013272
4	N	0.176566	0.312822	0.013168
5	C	0.210117	0.336721	0.013248
6	N	0.218345	0.369971	0.013169
7	C	0.236194	0.32852	0.012195
8	C	0.202643	0.4139	0.012242
9	C	0.117265	0.294971	0.012222
10	H	0.11277	0.270677	0.012907
11	H	0.182844	0.418395	0.01296
12	H	0.260488	0.34832	0.012887
13	C	0.250041	0.280266	0.010179
14	C	0.233496	0.245548	0.023788
15	C	0.252721	0.228764	0.03041
16	N	0.239639	0.199812	0.056006
17	H	0.218165	0.191017	0.071633
18	H	0.254725	0.193294	0.070133
19	N	0.199139	0.22857	0.030344
20	H	0.185469	0.239041	0.024503
21	H	0.186274	0.20411	0.03287
22	N	0.231464	0.296531	0.012976
23	C	0.250898	0.476004	0.010148
24	C	0.251772	0.030761	0.336185
25	C	0.234986	0.494749	0.329613
26	N	0.234817	0.048147	0.329484
27	H	0.245289	0.072294	0.335276
28	H	0.210363	0.036564	0.326872
29	N	0.206113	0.478883	0.30391
30	H	0.199192	0.457116	0.290019
31	H	0.19707	0.491416	0.288422
32	N	0.234627	0.441162	0.012979
33	C	0.055164	0.281127	0.010206
34	C	0.036994	0.297673	0.023819
35	C	0.036427	0.246469	0.329665
36	N	0.054373	0.332029	0.030376
37	H	0.078514	0.345699	0.024534
38	H	0.042778	0.344894	0.032903
39	N	0.052293	0.233407	0.304021
40	H	0.073933	0.248415	0.289966
41	H	0.03954	0.211943	0.288362
42	N	0.090007	0.299701	0.013006
43	C	0.194444	0.379623	0.346607
44	N	0.161195	0.354599	0.346525
45	C	0.151544	0.321048	0.346603
46	N	0.176566	0.312822	0.346501
47	C	0.210117	0.336721	0.346579
48	N	0.218345	0.369971	0.346501
49	C	0.236194	0.32852	0.34553
50	C	0.202643	0.4139	0.345578
51	C	0.117265	0.294971	0.345554
52	H	0.11277	0.270677	0.346241
53	H	0.182844	0.418395	0.346292
54	H	0.260488	0.34832	0.346221
55	C	0.250041	0.280266	0.343511
56	C	0.233496	0.245548	0.357122
57	C	0.252721	0.228764	0.363743
58	N	0.239639	0.199812	0.389339
59	H	0.218165	0.191017	0.404966
60	H	0.254725	0.193294	0.403466
61	N	0.199139	0.22857	0.363679
62	H	0.185469	0.239041	0.357836
63	H	0.186274	0.20411	0.366203
64	N	0.231464	0.296531	0.346309
65	C	0.250898	0.476004	0.343484
66	C	0.251772	0.030761	0.669517
67	C	0.234986	0.494749	0.662947
68	N	0.234817	0.048147	0.662817
69	H	0.245289	0.072294	0.668608
70	H	0.210363	0.036564	0.660204
71	N	0.206113	0.478883	0.637242
72	H	0.199192	0.457116	0.623351
73	H	0.19707	0.491416	0.621755
74	N	0.234627	0.441162	0.346313
75	C	0.055164	0.281127	0.343542
76	C	0.036994	0.297673	0.357153
77	C	0.036427	0.246469	0.662998
78	N	0.054373	0.332029	0.363709
79	H	0.078514	0.345699	0.357867
80	H	0.042778	0.344894	0.366234
81	N	0.052293	0.233407	0.637355
82	H	0.073933	0.248415	0.6233
83	H	0.03954	0.211943	0.621694
84	N	0.090007	0.299701	0.34634
85	C	0.194444	0.379623	0.67994
86	N	0.161195	0.354599	0.679858
87	C	0.151544	0.321048	0.679937
88	N	0.176566	0.312822	0.679835
89	C	0.210117	0.336721	0.679913
90	N	0.218345	0.369971	0.679835
91	C	0.236194	0.32852	0.678861
92	C	0.202643	0.4139	0.678909
93	C	0.117265	0.294971	0.678888
94	H	0.11277	0.270677	0.679571
95	H	0.182844	0.418395	0.679626
96	H	0.260488	0.34832	0.679554
97	C	0.250041	0.280266	0.676845
98	C	0.233496	0.245548	0.690453
99	C	0.252721	0.228764	0.697074
100	N	0.239639	0.199812	0.722673
101	H	0.218165	0.191017	0.7383
102	H	0.254725	0.193294	0.7368
103	N	0.199139	0.22857	0.697009
104	H	0.185469	0.239041	0.69117
105	H	0.186274	0.20411	0.699534
106	N	0.231464	0.296531	0.679643
107	C	0.250898	0.476004	0.676818
108	C	0.251772	0.030761	0.002851
109	C	0.234986	0.494749	0.996278
110	N	0.234817	0.048147	0.996151
111	H	0.245289	0.072294	0.001942
112	H	0.210363	0.036564	0.993538
113	N	0.206113	0.478883	0.970576
114	H	0.199192	0.457116	0.956685
115	H	0.19707	0.491416	0.955089
116	N	0.234627	0.441162	0.679643
117	C	0.055164	0.281127	0.676876
118	C	0.036994	0.297673	0.690484
119	C	0.036427	0.246469	0.996329
120	N	0.054373	0.332029	0.697043
121	H	0.078514	0.345699	0.691201
122	H	0.042778	0.344894	0.699568
123	N	0.052293	0.233407	0.970685
124	H	0.073933	0.248415	0.956633
125	H	0.03954	0.211943	0.955028
126	N	0.090007	0.299701	0.679671
127	C	0.194444	0.879622	0.013274
128	N	0.161195	0.854599	0.013193
129	C	0.151544	0.821048	0.013272
130	N	0.176566	0.812822	0.013168
131	C	0.210118	0.836721	0.013248
132	N	0.218345	0.869971	0.013169
133	C	0.236194	0.82852	0.012195
134	C	0.202643	0.9139	0.012242
135	C	0.117264	0.794971	0.012222
136	H	0.11277	0.770677	0.012907
137	H	0.182844	0.918394	0.01296
138	H	0.260489	0.84832	0.012887
139	C	0.250042	0.780266	0.010179
140	C	0.233496	0.745547	0.023788
141	C	0.252722	0.728765	0.03041
142	N	0.23964	0.699812	0.056006
143	H	0.218165	0.691016	0.071633
144	H	0.254725	0.693293	0.070133
145	N	0.19914	0.72857	0.030344
146	H	0.185469	0.73904	0.024503
147	H	0.186274	0.704109	0.03287
148	N	0.231466	0.796533	0.012976
149	C	0.250897	0.976004	0.010148
150	C	0.251772	0.530761	0.336185
151	C	0.234987	0.994748	0.329613
152	N	0.234818	0.548148	0.329484
153	H	0.24529	0.572295	0.335276
154	H	0.210364	0.536564	0.326872
155	N	0.206113	0.978883	0.30391
156	H	0.199192	0.957116	0.290019
157	H	0.19707	0.991416	0.288422
158	N	0.234627	0.941162	0.012979
159	C	0.055164	0.781126	0.010206
160	C	0.036995	0.797673	0.023819
161	C	0.036427	0.746469	0.329665
162	N	0.054375	0.832029	0.030376
163	H	0.078515	0.845699	0.024534
164	H	0.042779	0.844897	0.032903
165	N	0.052293	0.733407	0.304021
166	H	0.073933	0.748413	0.289966
167	H	0.039539	0.711943	0.288362
168	N	0.090007	0.799701	0.013006
169	C	0.194444	0.879622	0.346607
170	N	0.161195	0.854599	0.346525
171	C	0.151544	0.821048	0.346603
172	N	0.176566	0.812822	0.346501
173	C	0.210118	0.836721	0.346579
174	N	0.218345	0.869971	0.346501
175	C	0.236194	0.82852	0.34553
176	C	0.202643	0.9139	0.345578
177	C	0.117264	0.794971	0.345554
178	H	0.11277	0.770677	0.346241
179	H	0.182844	0.918394	0.346292
180	H	0.260489	0.84832	0.346221
181	C	0.250042	0.780266	0.343511
182	C	0.233496	0.745547	0.357122
183	C	0.252722	0.728765	0.363743
184	N	0.23964	0.699812	0.389339
185	H	0.218165	0.691016	0.404966
186	H	0.254725	0.693293	0.403466
187	N	0.19914	0.72857	0.363679
188	H	0.185469	0.73904	0.357836
189	H	0.186274	0.704109	0.366203
190	N	0.231466	0.796533	0.346309
191	C	0.250897	0.976004	0.343484
192	C	0.251772	0.530761	0.669517
193	C	0.234987	0.994748	0.662947
194	N	0.234818	0.548148	0.662817
195	H	0.24529	0.572295	0.668608
196	H	0.210364	0.536564	0.660204
197	N	0.206113	0.978883	0.637242
198	H	0.199192	0.957116	0.623351
199	H	0.19707	0.991416	0.621755
200	N	0.234627	0.941162	0.346313
201	C	0.055164	0.781126	0.343542
202	C	0.036995	0.797673	0.357153
203	C	0.036427	0.746469	0.662998
204	N	0.054375	0.832029	0.363709
205	H	0.078515	0.845699	0.357867
206	H	0.042779	0.844897	0.366234
207	N	0.052293	0.733407	0.637355
208	H	0.073933	0.748413	0.6233
209	H	0.039539	0.711943	0.621694
210	N	0.090007	0.799701	0.34634
211	C	0.194444	0.879622	0.67994
212	N	0.161195	0.854599	0.679858
213	C	0.151544	0.821048	0.679937
214	N	0.176566	0.812822	0.679835
215	C	0.210118	0.836721	0.679913
216	N	0.218345	0.869971	0.679835
217	C	0.236194	0.82852	0.678861
218	C	0.202643	0.9139	0.678909
219	C	0.117264	0.794971	0.678888
220	H	0.11277	0.770677	0.679571
221	H	0.182844	0.918394	0.679626
222	H	0.260489	0.84832	0.679554
223	C	0.250042	0.780266	0.676845
224	C	0.233496	0.745547	0.690453
225	C	0.252722	0.728765	0.697074
226	N	0.23964	0.699812	0.722673
227	H	0.218165	0.691016	0.7383
228	H	0.254725	0.693293	0.7368
229	N	0.19914	0.72857	0.697009
230	H	0.185469	0.73904	0.69117
231	H	0.186274	0.704109	0.699534
232	N	0.231466	0.796533	0.679643
233	C	0.250897	0.976004	0.676818
234	C	0.251772	0.530761	0.002851
235	C	0.234987	0.994748	0.996278
236	N	0.234818	0.548148	0.996151
237	H	0.24529	0.572295	0.001942
238	H	0.210364	0.536564	0.993538
239	N	0.206113	0.978883	0.970576
240	H	0.199192	0.957116	0.956685
241	H	0.19707	0.991416	0.955089
242	N	0.234627	0.941162	0.679643
243	C	0.055164	0.781126	0.676876
244	C	0.036995	0.797673	0.690484
245	C	0.036427	0.746469	0.996329
246	N	0.054375	0.832029	0.697043
247	H	0.078515	0.845699	0.691201
248	H	0.042779	0.844897	0.699568
249	N	0.052293	0.733407	0.970685
250	H	0.073933	0.748413	0.956633
251	H	0.039539	0.711943	0.955028
252	N	0.090007	0.799701	0.679671
253	C	0.342951	0.145307	0.013494
254	N	0.376205	0.170322	0.013597
255	C	0.385864	0.203877	0.013508
256	N	0.360849	0.212113	0.013579
257	C	0.327295	0.188219	0.013479
258	N	0.319059	0.154968	0.013566
259	C	0.301224	0.196429	0.014517
260	C	0.334739	0.111025	0.014548
261	C	0.420146	0.229946	0.014558
262	H	0.424646	0.254242	0.013877
263	H	0.354533	0.106521	0.013915
264	H	0.276926	0.176636	0.013838
265	C	0.287388	0.244689	0.349907
266	C	0.303924	0.279402	0.336283
267	C	0.2847	0.296189	0.329638
268	N	0.338284	0.296387	0.329754
269	H	0.351958	0.285925	0.335621
270	H	0.351144	0.320851	0.327246
271	N	0.297762	0.325117	0.303999
272	H	0.282755	0.331751	0.289944
273	H	0.319227	0.333829	0.288342
274	N	0.305962	0.22842	0.347088
275	C	0.285609	0.494181	0.023794
276	C	0.30238	0.030191	0.030447
277	C	0.28647	0.04893	0.349873
278	N	0.331309	0.046039	0.056092
279	H	0.340072	0.033344	0.071756
280	H	0.337829	0.067648	0.070204
281	N	0.302616	0.47683	0.03038
282	H	0.29212	0.452708	0.024333
283	H	0.327072	0.488429	0.032827
284	N	0.302747	0.083774	0.347068
285	N	0.447397	0.225208	0.347123
286	C	0.342951	0.145307	0.346829
287	N	0.376205	0.170322	0.346931
288	C	0.385864	0.203877	0.346839
289	N	0.360849	0.212113	0.346911
290	C	0.327295	0.188219	0.346812
291	N	0.319059	0.154968	0.3469
292	C	0.301224	0.196429	0.34785
293	C	0.334739	0.111025	0.347881
294	C	0.420146	0.229946	0.347891
295	H	0.424646	0.254242	0.347211
296	H	0.354533	0.106521	0.347249
297	H	0.276926	0.176636	0.34717
298	C	0.287388	0.244689	0.683241
299	C	0.303924	0.279402	0.669616
300	C	0.2847	0.296189	0.662971
301	N	0.338284	0.296387	0.663087
302	H	0.351958	0.285925	0.668953
303	H	0.351144	0.320851	0.66058
304	N	0.297762	0.325117	0.637331
305	H	0.282755	0.331751	0.623276
306	H	0.319227	0.333829	0.621673
307	N	0.305962	0.22842	0.680422
308	C	0.285609	0.494181	0.357126
309	C	0.30238	0.030191	0.363781
310	C	0.28647	0.04893	0.683207
311	N	0.331309	0.046039	0.389425
312	H	0.340072	0.033344	0.405089
313	H	0.337829	0.067648	0.403538
314	N	0.302616	0.47683	0.363713
315	H	0.29212	0.452708	0.357666
316	H	0.327072	0.488429	0.366159
317	N	0.302747	0.083774	0.680402
318	N	0.447397	0.225208	0.680456
319	C	0.342951	0.145307	0.680159
320	N	0.376205	0.170322	0.680262
321	C	0.385864	0.203877	0.680173
322	N	0.360849	0.212113	0.680244
323	C	0.327295	0.188219	0.680145
324	N	0.319059	0.154968	0.680231
325	C	0.301224	0.196429	0.681184
326	C	0.334739	0.111025	0.681215
327	C	0.420146	0.229946	0.681225
328	H	0.424646	0.254242	0.680542
329	H	0.354533	0.106521	0.680579
330	H	0.276926	0.176636	0.680504
331	C	0.287388	0.244689	0.016573
332	C	0.303924	0.279402	0.00295
333	C	0.2847	0.296189	0.996305
334	N	0.338284	0.296387	0.996421
335	H	0.351958	0.285925	0.002287
336	H	0.351144	0.320851	0.99391
337	N	0.297762	0.325117	0.970665
338	H	0.282755	0.331751	0.956609
339	H	0.319227	0.333829	0.955007
340	N	0.305962	0.22842	0.013755
341	C	0.285609	0.494181	0.69046
342	C	0.30238	0.030191	0.697111
343	C	0.28647	0.04893	0.01654
344	N	0.331309	0.046039	0.722758
345	H	0.340072	0.033344	0.738423
346	H	0.337829	0.067648	0.736868
347	N	0.302616	0.47683	0.697046
348	H	0.29212	0.452708	0.690999
349	H	0.327072	0.488429	0.699493
350	N	0.302747	0.083774	0.013736
351	N	0.447397	0.225208	0.01379
352	C	0.342953	0.645307	0.013494
353	N	0.376204	0.670323	0.013597
354	C	0.385864	0.703876	0.013508
355	N	0.360849	0.712113	0.013579
356	C	0.327295	0.688219	0.013479
357	N	0.31906	0.654969	0.013566
358	C	0.301225	0.69643	0.014517
359	C	0.334738	0.611024	0.014548
360	C	0.420146	0.729945	0.014558
361	H	0.424647	0.754242	0.013877
362	H	0.354534	0.606522	0.013915
363	H	0.276926	0.676635	0.013838
364	C	0.287388	0.744689	0.349907
365	C	0.303925	0.779402	0.336283
366	C	0.2847	0.796189	0.329638
367	N	0.338284	0.796387	0.329754
368	H	0.351958	0.785925	0.335621
369	H	0.351145	0.82085	0.327246
370	N	0.297762	0.825117	0.303999
371	H	0.282755	0.831751	0.289944
372	H	0.319227	0.833829	0.288342
373	N	0.305963	0.728421	0.347088
374	C	0.28561	0.994181	0.023794
375	C	0.302381	0.530191	0.030447
376	C	0.286471	0.54893	0.349873
377	N	0.331309	0.546039	0.056092
378	H	0.340072	0.533343	0.071756
379	H	0.33783	0.567649	0.070204
380	N	0.302617	0.97683	0.03038
381	H	0.29212	0.952708	0.024333
382	H	0.327073	0.988429	0.032827
383	N	0.302749	0.583775	0.347068
384	N	0.447399	0.725208	0.347123
385	C	0.342953	0.645307	0.346829
386	N	0.376204	0.670323	0.346931
387	C	0.385864	0.703876	0.346839
388	N	0.360849	0.712113	0.346911
389	C	0.327295	0.688219	0.346812
390	N	0.31906	0.654969	0.3469
391	C	0.301225	0.69643	0.34785
392	C	0.334738	0.611024	0.347881
393	C	0.420146	0.729945	0.347891
394	H	0.424647	0.754242	0.347211
395	H	0.354534	0.606522	0.347249
396	H	0.276926	0.676635	0.34717
397	C	0.287388	0.744689	0.683241
398	C	0.303925	0.779402	0.669616
399	C	0.2847	0.796189	0.662971
400	N	0.338284	0.796387	0.663087
401	H	0.351958	0.785925	0.668953
402	H	0.351145	0.82085	0.66058
403	N	0.297762	0.825117	0.637331
404	H	0.282755	0.831751	0.623276
405	H	0.319227	0.833829	0.621673
406	N	0.305963	0.728421	0.680422
407	C	0.28561	0.994181	0.357126
408	C	0.302381	0.530191	0.363781
409	C	0.286471	0.54893	0.683207
410	N	0.331309	0.546039	0.389425
411	H	0.340072	0.533343	0.405089
412	H	0.33783	0.567649	0.403538
413	N	0.302617	0.97683	0.363713
414	H	0.29212	0.952708	0.357666
415	H	0.327073	0.988429	0.366159
416	N	0.302749	0.583775	0.680402
417	N	0.447399	0.725208	0.680456
418	C	0.342953	0.645307	0.680159
419	N	0.376204	0.670323	0.680262
420	C	0.385864	0.703876	0.680173
421	N	0.360849	0.712113	0.680244
422	C	0.327295	0.688219	0.680145
423	N	0.31906	0.654969	0.680231
424	C	0.301225	0.69643	0.681184
425	C	0.334738	0.611024	0.681215
426	C	0.420146	0.729945	0.681225
427	H	0.424647	0.754242	0.680542
428	H	0.354534	0.606522	0.680579
429	H	0.276926	0.676635	0.680504
430	C	0.287388	0.744689	0.016573
431	C	0.303925	0.779402	0.00295
432	C	0.2847	0.796189	0.996305
433	N	0.338284	0.796387	0.996421
434	H	0.351958	0.785925	0.002287
435	H	0.351145	0.82085	0.99391
436	N	0.297762	0.825117	0.970665
437	H	0.282755	0.831751	0.956609
438	H	0.319227	0.833829	0.955007
439	N	0.305963	0.728421	0.013755
440	C	0.28561	0.994181	0.69046
441	C	0.302381	0.530191	0.697111
442	C	0.286471	0.54893	0.01654
443	N	0.331309	0.546039	0.722758
444	H	0.340072	0.533343	0.738423
445	H	0.33783	0.567649	0.736868
446	N	0.302617	0.97683	0.697046
447	H	0.29212	0.952708	0.690999
448	H	0.327073	0.988429	0.699493
449	N	0.302749	0.583775	0.013736
450	N	0.447399	0.725208	0.01379
451	C	0.500984	0.278448	0.030442
452	C	0.482241	0.243782	0.349938
453	C	0.500417	0.227245	0.33631
454	N	0.485115	0.29153	0.05604
455	H	0.497796	0.313007	0.071666
456	H	0.46351	0.276445	0.070166
457	N	0.483042	0.192886	0.329778
458	H	0.458904	0.179212	0.335645
459	H	0.494642	0.180025	0.327266
460	C	0.500984	0.278448	0.363774
461	C	0.482241	0.243782	0.683271
462	C	0.500417	0.227245	0.669643
463	N	0.485115	0.29153	0.389373
464	H	0.497796	0.313007	0.405
465	H	0.46351	0.276445	0.4035
466	N	0.483042	0.192886	0.663111
467	H	0.458904	0.179212	0.668977
468	H	0.494642	0.180025	0.660597
469	C	0.500984	0.278448	0.697108
470	C	0.482241	0.243782	0.016606
471	C	0.500417	0.227245	0.002977
472	N	0.485115	0.29153	0.722704
473	H	0.497796	0.313007	0.738331
474	H	0.46351	0.276445	0.736831
475	N	0.483042	0.192886	0.996445
476	H	0.458904	0.179212	0.002311
477	H	0.494642	0.180025	0.99393
478	C	0.500984	0.778448	0.030442
479	C	0.482242	0.743783	0.349938
480	C	0.500418	0.727246	0.33631
481	N	0.485115	0.79153	0.05604
482	H	0.497797	0.813006	0.071666
483	H	0.463511	0.776445	0.070166
484	N	0.483042	0.692885	0.329778
485	H	0.458905	0.679212	0.335645
486	H	0.494644	0.680025	0.327266
487	C	0.500984	0.778448	0.363774
488	C	0.482242	0.743783	0.683271
489	C	0.500418	0.727246	0.669643
490	N	0.485115	0.79153	0.389373
491	H	0.497797	0.813006	0.405
492	H	0.463511	0.776445	0.4035
493	N	0.483042	0.692885	0.663111
494	H	0.458905	0.679212	0.668977
495	H	0.494644	0.680025	0.660597
496	C	0.500984	0.778448	0.697108
497	C	0.482242	0.743783	0.016606
498	C	0.500418	0.727246	0.002977
499	N	0.485115	0.79153	0.722704
500	H	0.497797	0.813006	0.738331
501	H	0.463511	0.776445	0.736831
502	N	0.483042	0.692885	0.996445
503	H	0.458905	0.679212	0.002311
504	H	0.494644	0.680025	0.99393
505	C	0.555164	0.281127	0.010206
506	C	0.536995	0.297673	0.023819
507	C	0.536427	0.246469	0.329665
508	N	0.554372	0.332029	0.030376
509	H	0.578515	0.345699	0.024534
510	H	0.542778	0.344894	0.032903
511	N	0.552293	0.233407	0.304021
512	H	0.573933	0.248415	0.289966
513	H	0.539539	0.211943	0.288362
514	C	0.555164	0.281127	0.343542
515	C	0.536995	0.297673	0.357153
516	C	0.536427	0.246469	0.662998
517	N	0.554372	0.332029	0.363709
518	H	0.578515	0.345699	0.357867
519	H	0.542778	0.344894	0.366234
520	N	0.552293	0.233407	0.637355
521	H	0.573933	0.248415	0.6233
522	H	0.539539	0.211943	0.621694
523	C	0.555164	0.281127	0.676876
524	C	0.536995	0.297673	0.690484
525	C	0.536427	0.246469	0.996329
526	N	0.554372	0.332029	0.697043
527	H	0.578515	0.345699	0.691201
528	H	0.542778	0.344894	0.699568
529	N	0.552293	0.233407	0.970685
530	H	0.573933	0.248415	0.956633
531	H	0.539539	0.211943	0.955028
532	C	0.555164	0.781126	0.010206
533	C	0.536994	0.797673	0.023819
534	C	0.536428	0.746469	0.329665
535	N	0.554374	0.832029	0.030376
536	H	0.578515	0.845699	0.024534
537	H	0.54278	0.844897	0.032903
538	N	0.552293	0.733407	0.304021
539	H	0.573933	0.748413	0.289966
540	H	0.53954	0.711943	0.288362
541	C	0.555164	0.781126	0.343542
542	C	0.536994	0.797673	0.357153
543	C	0.536428	0.746469	0.662998
544	N	0.554374	0.832029	0.363709
545	H	0.578515	0.845699	0.357867
546	H	0.54278	0.844897	0.366234
547	N	0.552293	0.733407	0.637355
548	H	0.573933	0.748413	0.6233
549	H	0.53954	0.711943	0.621694
550	C	0.555164	0.781126	0.676876
551	C	0.536994	0.797673	0.690484
552	C	0.536428	0.746469	0.996329
553	N	0.554374	0.832029	0.697043
554	H	0.578515	0.845699	0.691201
555	H	0.54278	0.844897	0.699568
556	N	0.552293	0.733407	0.970685
557	H	0.573933	0.748413	0.956633
558	H	0.53954	0.711943	0.955028
559	C	0.694444	0.379623	0.013274
560	N	0.661195	0.354599	0.013193
561	C	0.651544	0.321048	0.013272
562	N	0.676566	0.312822	0.013168
563	C	0.710116	0.336721	0.013248
564	N	0.718345	0.369971	0.013169
565	C	0.736194	0.32852	0.012195
566	C	0.702643	0.4139	0.012242
567	C	0.617265	0.294971	0.012222
568	H	0.61277	0.270677	0.012907
569	H	0.682844	0.418395	0.01296
570	H	0.760488	0.34832	0.012887
571	C	0.842953	0.145307	0.013494
572	N	0.876204	0.170322	0.013597
573	C	0.885863	0.203877	0.013508
574	N	0.860848	0.212113	0.013579
575	C	0.827294	0.188219	0.013479
576	N	0.819058	0.154968	0.013566
577	C	0.801225	0.196429	0.014517
578	C	0.834738	0.111025	0.014548
579	C	0.920145	0.229946	0.014558
580	H	0.924648	0.254242	0.013877
581	H	0.854532	0.106521	0.013915
582	H	0.776926	0.176636	0.013838
583	C	0.750041	0.280266	0.010179
584	C	0.733496	0.245548	0.023788
585	C	0.752722	0.228764	0.03041
586	C	0.787387	0.244689	0.349907
587	C	0.803924	0.279402	0.336283
588	C	0.7847	0.296189	0.329638
589	N	0.73964	0.199812	0.056006
590	H	0.718166	0.191017	0.071633
591	H	0.754726	0.193294	0.070133
592	N	0.699139	0.22857	0.030344
593	H	0.685469	0.239041	0.024503
594	H	0.686273	0.20411	0.03287
595	N	0.838284	0.296387	0.329754
596	H	0.851959	0.285925	0.335621
597	H	0.851145	0.320851	0.327246
598	N	0.797763	0.325117	0.303999
599	H	0.782755	0.331751	0.289944
600	H	0.819227	0.333829	0.288342
601	N	0.731464	0.296531	0.012976
602	N	0.805963	0.22842	0.347088
603	C	0.750897	0.476004	0.010148
604	C	0.78561	0.494181	0.023794
605	C	0.802381	0.030191	0.030447
606	C	0.786471	0.04893	0.349873
607	C	0.751773	0.030761	0.336185
608	C	0.734987	0.494749	0.329613
609	N	0.83131	0.046039	0.056092
610	H	0.840073	0.033344	0.071756
611	H	0.83783	0.067648	0.070204
612	N	0.802616	0.47683	0.03038
613	H	0.79212	0.452708	0.024333
614	H	0.827073	0.488429	0.032827
615	N	0.734817	0.048147	0.329484
616	H	0.74529	0.072294	0.335276
617	H	0.710363	0.036564	0.326872
618	N	0.706113	0.478883	0.30391
619	H	0.699192	0.457116	0.290019
620	H	0.69707	0.491416	0.288422
621	N	0.734627	0.441162	0.012979
622	N	0.802748	0.083774	0.347068
623	C	0.000985	0.278448	0.030442
624	C	0.982242	0.243782	0.349938
625	C	0.000416	0.227245	0.33631
626	N	0.985114	0.29153	0.05604
627	H	0.997797	0.313007	0.071666
628	H	0.963511	0.276445	0.070166
629	N	0.983041	0.192886	0.329778
630	H	0.958905	0.179212	0.335645
631	H	0.994644	0.180025	0.327266
632	N	0.590008	0.299701	0.013006
633	N	0.947398	0.225208	0.347123
634	C	0.694444	0.379623	0.346607
635	N	0.661195	0.354599	0.346525
636	C	0.651544	0.321048	0.346603
637	N	0.676566	0.312822	0.346501
638	C	0.710116	0.336721	0.346579
639	N	0.718345	0.369971	0.346501
640	C	0.736194	0.32852	0.34553
641	C	0.702643	0.4139	0.345578
642	C	0.617265	0.294971	0.345554
643	H	0.61277	0.270677	0.346241
644	H	0.682844	0.418395	0.346292
645	H	0.760488	0.34832	0.346221
646	C	0.842953	0.145307	0.346829
647	N	0.876204	0.170322	0.346931
648	C	0.885863	0.203877	0.346839
649	N	0.860848	0.212113	0.346911
650	C	0.827294	0.188219	0.346812
651	N	0.819058	0.154968	0.3469
652	C	0.801225	0.196429	0.34785
653	C	0.834738	0.111025	0.347881
654	C	0.920145	0.229946	0.347891
655	H	0.924648	0.254242	0.347211
656	H	0.854532	0.106521	0.347249
657	H	0.776926	0.176636	0.34717
658	C	0.750041	0.280266	0.343511
659	C	0.733496	0.245548	0.357122
660	C	0.752722	0.228764	0.363743
661	C	0.787387	0.244689	0.683241
662	C	0.803924	0.279402	0.669616
663	C	0.7847	0.296189	0.662971
664	N	0.73964	0.199812	0.389339
665	H	0.718166	0.191017	0.404966
666	H	0.754726	0.193294	0.403466
667	N	0.699139	0.22857	0.363679
668	H	0.685469	0.239041	0.357836
669	H	0.686273	0.20411	0.366203
670	N	0.838284	0.296387	0.663087
671	H	0.851959	0.285925	0.668953
672	H	0.851145	0.320851	0.66058
673	N	0.797763	0.325117	0.637331
674	H	0.782755	0.331751	0.623276
675	H	0.819227	0.333829	0.621673
676	N	0.731464	0.296531	0.346309
677	N	0.805963	0.22842	0.680422
678	C	0.750897	0.476004	0.343484
679	C	0.78561	0.494181	0.357126
680	C	0.802381	0.030191	0.363781
681	C	0.786471	0.04893	0.683207
682	C	0.751773	0.030761	0.669517
683	C	0.734987	0.494749	0.662947
684	N	0.83131	0.046039	0.389425
685	H	0.840073	0.033344	0.405089
686	H	0.83783	0.067648	0.403538
687	N	0.802616	0.47683	0.363713
688	H	0.79212	0.452708	0.357666
689	H	0.827073	0.488429	0.366159
690	N	0.734817	0.048147	0.662817
691	H	0.74529	0.072294	0.668608
692	H	0.710363	0.036564	0.660204
693	N	0.706113	0.478883	0.637242
694	H	0.699192	0.457116	0.623351
695	H	0.69707	0.491416	0.621755
696	N	0.734627	0.441162	0.346313
697	N	0.802748	0.083774	0.680402
698	C	0.000985	0.278448	0.363774
699	C	0.982242	0.243782	0.683271
700	C	0.000416	0.227245	0.669643
701	N	0.985114	0.29153	0.389373
702	H	0.997797	0.313007	0.405
703	H	0.963511	0.276445	0.4035
704	N	0.983041	0.192886	0.663111
705	H	0.958905	0.179212	0.668977
706	H	0.994644	0.180025	0.660597
707	N	0.590008	0.299701	0.34634
708	N	0.947398	0.225208	0.680456
709	C	0.694444	0.379623	0.67994
710	N	0.661195	0.354599	0.679858
711	C	0.651544	0.321048	0.679937
712	N	0.676566	0.312822	0.679835
713	C	0.710116	0.336721	0.679913
714	N	0.718345	0.369971	0.679835
715	C	0.736194	0.32852	0.678861
716	C	0.702643	0.4139	0.678909
717	C	0.617265	0.294971	0.678888
718	H	0.61277	0.270677	0.679571
719	H	0.682844	0.418395	0.679626
720	H	0.760488	0.34832	0.679554
721	C	0.842953	0.145307	0.680159
722	N	0.876204	0.170322	0.680262
723	C	0.885863	0.203877	0.680173
724	N	0.860848	0.212113	0.680244
725	C	0.827294	0.188219	0.680145
726	N	0.819058	0.154968	0.680231
727	C	0.801225	0.196429	0.681184
728	C	0.834738	0.111025	0.681215
729	C	0.920145	0.229946	0.681225
730	H	0.924648	0.254242	0.680542
731	H	0.854532	0.106521	0.680579
732	H	0.776926	0.176636	0.680504
733	C	0.750041	0.280266	0.676845
734	C	0.733496	0.245548	0.690453
735	C	0.752722	0.228764	0.697074
736	C	0.787387	0.244689	0.016573
737	C	0.803924	0.279402	0.00295
738	C	0.7847	0.296189	0.996305
739	N	0.73964	0.199812	0.722673
740	H	0.718166	0.191017	0.7383
741	H	0.754726	0.193294	0.7368
742	N	0.699139	0.22857	0.697009
743	H	0.685469	0.239041	0.69117
744	H	0.686273	0.20411	0.699534
745	N	0.838284	0.296387	0.996421
746	H	0.851959	0.285925	0.002287
747	H	0.851145	0.320851	0.99391
748	N	0.797763	0.325117	0.970665
749	H	0.782755	0.331751	0.956609
750	H	0.819227	0.333829	0.955007
751	N	0.731464	0.296531	0.679643
752	N	0.805963	0.22842	0.013755
753	C	0.750897	0.476004	0.676818
754	C	0.78561	0.494181	0.69046
755	C	0.802381	0.030191	0.697111
756	C	0.786471	0.04893	0.01654
757	C	0.751773	0.030761	0.002851
758	C	0.734987	0.494749	0.996278
759	N	0.83131	0.046039	0.722758
760	H	0.840073	0.033344	0.738423
761	H	0.83783	0.067648	0.736868
762	N	0.802616	0.47683	0.697046
763	H	0.79212	0.452708	0.690999
764	H	0.827073	0.488429	0.699493
765	N	0.734817	0.048147	0.996151
766	H	0.74529	0.072294	0.001942
767	H	0.710363	0.036564	0.993538
768	N	0.706113	0.478883	0.970576
769	H	0.699192	0.457116	0.956685
770	H	0.69707	0.491416	0.955089
771	N	0.734627	0.441162	0.679643
772	N	0.802748	0.083774	0.013736
773	C	0.000985	0.278448	0.697108
774	C	0.982242	0.243782	0.016606
775	C	0.000416	0.227245	0.002977
776	N	0.985114	0.29153	0.722704
777	H	0.997797	0.313007	0.738331
778	H	0.963511	0.276445	0.736831
779	N	0.983041	0.192886	0.996445
780	H	0.958905	0.179212	0.002311
781	H	0.994644	0.180025	0.99393
782	N	0.590008	0.299701	0.679671
783	N	0.947398	0.225208	0.01379
784	C	0.694445	0.879622	0.013274
785	N	0.661196	0.854599	0.013193
786	C	0.651545	0.821048	0.013272
787	N	0.676567	0.812822	0.013168
788	C	0.710117	0.836721	0.013248
789	N	0.718346	0.869971	0.013169
790	C	0.736196	0.82852	0.012195
791	C	0.702644	0.9139	0.012242
792	C	0.617266	0.794971	0.012222
793	H	0.612771	0.770677	0.012907
794	H	0.682845	0.918394	0.01296
795	H	0.760489	0.84832	0.012887
796	C	0.842953	0.645307	0.013494
797	N	0.876205	0.670323	0.013597
798	C	0.885864	0.703876	0.013508
799	N	0.860849	0.712113	0.013579
800	C	0.827295	0.688219	0.013479
801	N	0.819059	0.654969	0.013566
802	C	0.801224	0.69643	0.014517
803	C	0.834739	0.611024	0.014548
804	C	0.920146	0.729945	0.014558
805	H	0.924646	0.754242	0.013877
806	H	0.854534	0.606522	0.013915
807	H	0.776927	0.676635	0.013838
808	C	0.750042	0.780266	0.010179
809	C	0.733497	0.745547	0.023788
810	C	0.752723	0.728765	0.03041
811	C	0.787388	0.744689	0.349907
812	C	0.803925	0.779402	0.336283
813	C	0.784701	0.796189	0.329638
814	N	0.739639	0.699812	0.056006
815	H	0.718164	0.691016	0.071633
816	H	0.754726	0.693293	0.070133
817	N	0.69914	0.72857	0.030344
818	H	0.685469	0.73904	0.024503
819	H	0.686274	0.704109	0.03287
820	N	0.838285	0.796387	0.329754
821	H	0.851958	0.785925	0.335621
822	H	0.851144	0.82085	0.327246
823	N	0.797761	0.825117	0.303999
824	H	0.782756	0.831751	0.289944
825	H	0.819228	0.833829	0.288342
826	N	0.731466	0.796533	0.012976
827	N	0.805964	0.728421	0.347088
828	C	0.750898	0.976004	0.010148
829	C	0.785609	0.994181	0.023794
830	C	0.80238	0.530191	0.030447
831	C	0.786472	0.54893	0.349873
832	C	0.751772	0.530761	0.336185
833	C	0.734988	0.994748	0.329613
834	N	0.831309	0.546039	0.056092
835	H	0.840073	0.533343	0.071756
836	H	0.837831	0.567649	0.070204
837	N	0.802617	0.97683	0.03038
838	H	0.792119	0.952708	0.024333
839	H	0.827072	0.988429	0.032827
840	N	0.734819	0.548148	0.329484
841	H	0.74529	0.572295	0.335276
842	H	0.710364	0.536564	0.326872
843	N	0.706114	0.978883	0.30391
844	H	0.699193	0.957116	0.290019
845	H	0.697071	0.991416	0.288422
846	N	0.734628	0.941162	0.012979
847	N	0.80275	0.583775	0.347068
848	C	0.000984	0.778448	0.030442
849	C	0.982243	0.743783	0.349938
850	C	0.000417	0.727246	0.33631
851	N	0.985115	0.79153	0.05604
852	H	0.997796	0.813006	0.071666
853	H	0.96351	0.776445	0.070166
854	N	0.983042	0.692885	0.329778
855	H	0.958904	0.679212	0.335645
856	H	0.994645	0.680025	0.327266
857	N	0.590008	0.799701	0.013006
858	N	0.947399	0.725208	0.347123
859	C	0.694445	0.879622	0.346607
860	N	0.661196	0.854599	0.346525
861	C	0.651545	0.821048	0.346603
862	N	0.676567	0.812822	0.346501
863	C	0.710117	0.836721	0.346579
864	N	0.718346	0.869971	0.346501
865	C	0.736196	0.82852	0.34553
866	C	0.702644	0.9139	0.345578
867	C	0.617266	0.794971	0.345554
868	H	0.612771	0.770677	0.346241
869	H	0.682845	0.918394	0.346292
870	H	0.760489	0.84832	0.346221
871	C	0.842953	0.645307	0.346829
872	N	0.876205	0.670323	0.346931
873	C	0.885864	0.703876	0.346839
874	N	0.860849	0.712113	0.346911
875	C	0.827295	0.688219	0.346812
876	N	0.819059	0.654969	0.3469
877	C	0.801224	0.69643	0.34785
878	C	0.834739	0.611024	0.347881
879	C	0.920146	0.729945	0.347891
880	H	0.924646	0.754242	0.347211
881	H	0.854534	0.606522	0.347249
882	H	0.776927	0.676635	0.34717
883	C	0.750042	0.780266	0.343511
884	C	0.733497	0.745547	0.357122
885	C	0.752723	0.728765	0.363743
886	C	0.787388	0.744689	0.683241
887	C	0.803925	0.779402	0.669616
888	C	0.784701	0.796189	0.662971
889	N	0.739639	0.699812	0.389339
890	H	0.718164	0.691016	0.404966
891	H	0.754726	0.693293	0.403466
892	N	0.69914	0.72857	0.363679
893	H	0.685469	0.73904	0.357836
894	H	0.686274	0.704109	0.366203
895	N	0.838285	0.796387	0.663087
896	H	0.851958	0.785925	0.668953
897	H	0.851144	0.82085	0.66058
898	N	0.797761	0.825117	0.637331
899	H	0.782756	0.831751	0.623276
900	H	0.819228	0.833829	0.621673
901	N	0.731466	0.796533	0.346309
902	N	0.805964	0.728421	0.680422
903	C	0.750898	0.976004	0.343484
904	C	0.785609	0.994181	0.357126
905	C	0.80238	0.530191	0.363781
906	C	0.786472	0.54893	0.683207
907	C	0.751772	0.530761	0.669517
908	C	0.734988	0.994748	0.662947
909	N	0.831309	0.546039	0.389425
910	H	0.840073	0.533343	0.405089
911	H	0.837831	0.567649	0.403538
912	N	0.802617	0.97683	0.363713
913	H	0.792119	0.952708	0.357666
914	H	0.827072	0.988429	0.366159
915	N	0.734819	0.548148	0.662817
916	H	0.74529	0.572295	0.668608
917	H	0.710364	0.536564	0.660204
918	N	0.706114	0.978883	0.637242
919	H	0.699193	0.957116	0.623351
920	H	0.697071	0.991416	0.621755
921	N	0.734628	0.941162	0.346313
922	N	0.80275	0.583775	0.680402
923	C	0.000984	0.778448	0.363774
924	C	0.982243	0.743783	0.683271
925	C	0.000417	0.727246	0.669643
926	N	0.985115	0.79153	0.389373
927	H	0.997796	0.813006	0.405
928	H	0.96351	0.776445	0.4035
929	N	0.983042	0.692885	0.663111
930	H	0.958904	0.679212	0.668977
931	H	0.994645	0.680025	0.660597
932	N	0.590008	0.799701	0.34634
933	N	0.947399	0.725208	0.680456
934	C	0.694445	0.879622	0.67994
935	N	0.661196	0.854599	0.679858
936	C	0.651545	0.821048	0.679937
937	N	0.676567	0.812822	0.679835
938	C	0.710117	0.836721	0.679913
939	N	0.718346	0.869971	0.679835
940	C	0.736196	0.82852	0.678861
941	C	0.702644	0.9139	0.678909
942	C	0.617266	0.794971	0.678888
943	H	0.612771	0.770677	0.679571
944	H	0.682845	0.918394	0.679626
945	H	0.760489	0.84832	0.679554
946	C	0.842953	0.645307	0.680159
947	N	0.876205	0.670323	0.680262
948	C	0.885864	0.703876	0.680173
949	N	0.860849	0.712113	0.680244
950	C	0.827295	0.688219	0.680145
951	N	0.819059	0.654969	0.680231
952	C	0.801224	0.69643	0.681184
953	C	0.834739	0.611024	0.681215
954	C	0.920146	0.729945	0.681225
955	H	0.924646	0.754242	0.680542
956	H	0.854534	0.606522	0.680579
957	H	0.776927	0.676635	0.680504
958	C	0.750042	0.780266	0.676845
959	C	0.733497	0.745547	0.690453
960	C	0.752723	0.728765	0.697074
961	C	0.787388	0.744689	0.016573
962	C	0.803925	0.779402	0.00295
963	C	0.784701	0.796189	0.996305
964	N	0.739639	0.699812	0.722673
965	H	0.718164	0.691016	0.7383
966	H	0.754726	0.693293	0.7368
967	N	0.69914	0.72857	0.697009
968	H	0.685469	0.73904	0.69117
969	H	0.686274	0.704109	0.699534
970	N	0.838285	0.796387	0.996421
971	H	0.851958	0.785925	0.002287
972	H	0.851144	0.82085	0.99391
973	N	0.797761	0.825117	0.970665
974	H	0.782756	0.831751	0.956609
975	H	0.819228	0.833829	0.955007
976	N	0.731466	0.796533	0.679643
977	N	0.805964	0.728421	0.013755
978	C	0.750898	0.976004	0.676818
979	C	0.785609	0.994181	0.69046
980	C	0.80238	0.530191	0.697111
981	C	0.786472	0.54893	0.01654
982	C	0.751772	0.530761	0.002851
983	C	0.734988	0.994748	0.996278
984	N	0.831309	0.546039	0.722758
985	H	0.840073	0.533343	0.738423
986	H	0.837831	0.567649	0.736868
987	N	0.802617	0.97683	0.697046
988	H	0.792119	0.952708	0.690999
989	H	0.827072	0.988429	0.699493
990	N	0.734819	0.548148	0.996151
991	H	0.74529	0.572295	0.001942
992	H	0.710364	0.536564	0.993538
993	N	0.706114	0.978883	0.970576
994	H	0.699193	0.957116	0.956685
995	H	0.697071	0.991416	0.955089
996	N	0.734628	0.941162	0.679643
997	N	0.80275	0.583775	0.013736
998	C	0.000984	0.778448	0.697108
999	C	0.982243	0.743783	0.016606
1000	C	0.000417	0.727246	0.002977
1001	N	0.985115	0.79153	0.722704
1002	H	0.997796	0.813006	0.738331
1003	H	0.96351	0.776445	0.736831
1004	N	0.983042	0.692885	0.996445
1005	H	0.958904	0.679212	0.002311
1006	H	0.994645	0.680025	0.99393
1007	N	0.590008	0.799701	0.679671
1008	N	0.947399	0.725208	0.01379
