data_C576H324N36O72_2018-02-15_10:39:12
#******************************************
#
# CIF file created by Zeo++
# Zeo++ is an open source package to
# analyze microporous materials
#
#*******************************************

_cell_length_a		44.6556   
_cell_length_b		44.6556   
_cell_length_c		29.621   
_cell_angle_alpha		90   
_cell_angle_beta		90   
_cell_angle_gamma		120   

_symmetry_space_group_name_H-M		'P1'
_symmetry_Int_Tables_number		1
_symmetry_cell_setting		Monoclinic

loop_
_symmetry_equiv_pos_as_xyz
'+x,+y,+z'

loop_
_atom_site_label
_atom_site_type_symbol
_atom_site_fract_x
_atom_site_fract_y
_atom_site_fract_z
1	C	0.10187	0.302837	0.005459
2	C	0.083119	0.287643	0.04571
3	C	0.04644	0.269641	0.044802
4	C	0.027686	0.265855	0.004625
5	C	0.046919	0.280972	0.298172
6	C	0.083346	0.299409	0.298633
7	H	0.034485	0.279299	0.268468
8	H	0.096304	0.310122	0.26918
9	H	0.033337	0.258626	0.074049
10	N	0.10144	0.291134	0.086221
11	O	0.094526	0.262145	0.101585
12	O	0.0946	0.306959	0.115853
13	C	0.10187	0.302837	0.338793
14	C	0.083119	0.287643	0.379042
15	C	0.04644	0.269641	0.378137
16	C	0.027686	0.265855	0.33796
17	C	0.046919	0.280972	0.631505
18	C	0.083346	0.299409	0.631967
19	H	0.034485	0.279299	0.601803
20	H	0.096304	0.310122	0.602512
21	H	0.033337	0.258626	0.407383
22	N	0.10144	0.291134	0.419554
23	O	0.094526	0.262145	0.434918
24	O	0.0946	0.306959	0.449185
25	C	0.10187	0.302837	0.672124
26	C	0.083119	0.287643	0.712376
27	C	0.04644	0.269641	0.711468
28	C	0.027686	0.265855	0.671291
29	C	0.046919	0.280972	0.964839
30	C	0.083346	0.299409	0.965298
31	H	0.034485	0.279299	0.935134
32	H	0.096304	0.310122	0.935846
33	H	0.033337	0.258626	0.740714
34	N	0.10144	0.291134	0.752888
35	O	0.094526	0.262145	0.768252
36	O	0.0946	0.306959	0.782519
37	C	0.101871	0.802839	0.005459
38	C	0.083119	0.787642	0.045711
39	C	0.046439	0.76964	0.044803
40	C	0.027686	0.765854	0.004625
41	C	0.046919	0.780973	0.298173
42	C	0.083346	0.79941	0.298634
43	H	0.034485	0.7793	0.26847
44	H	0.096305	0.810123	0.269182
45	H	0.033338	0.758624	0.07405
46	N	0.10144	0.791133	0.086222
47	O	0.094525	0.762144	0.101585
48	O	0.094599	0.806958	0.115854
49	C	0.101871	0.802839	0.338793
50	C	0.083119	0.787642	0.379045
51	C	0.046439	0.76964	0.378137
52	C	0.027686	0.765854	0.33796
53	C	0.046919	0.780973	0.631508
54	C	0.083346	0.79941	0.631967
55	H	0.034485	0.7793	0.601803
56	H	0.096305	0.810123	0.602515
57	H	0.033338	0.758624	0.407383
58	N	0.10144	0.791133	0.419554
59	O	0.094525	0.762144	0.434918
60	O	0.094599	0.806958	0.449188
61	C	0.101871	0.802839	0.672128
62	C	0.083119	0.787642	0.712376
63	C	0.046439	0.76964	0.711472
64	C	0.027686	0.765854	0.671294
65	C	0.046919	0.780973	0.964839
66	C	0.083346	0.79941	0.965302
67	H	0.034485	0.7793	0.935137
68	H	0.096305	0.810123	0.93585
69	H	0.033338	0.758624	0.740718
70	N	0.10144	0.791133	0.752888
71	O	0.094525	0.762144	0.768252
72	O	0.094599	0.806958	0.782522
73	C	0.13874	0.321287	0.004851
74	C	0.157355	0.357866	0.004463
75	C	0.193891	0.37646	0.007075
76	C	0.211781	0.357814	0.00964
77	C	0.193816	0.321246	0.008969
78	C	0.157286	0.303287	0.006894
79	H	0.144022	0.276801	0.007306
80	H	0.144118	0.371107	0.003663
81	C	0.212184	0.30277	0.010687
82	C	0.227147	0.299416	0.051268
83	C	0.215794	0.287431	0.30421
84	H	0.205288	0.289552	0.274493
85	N	0.223441	0.314541	0.091346
86	O	0.207467	0.292078	0.121148
87	C	0.212348	0.413352	0.008263
88	C	0.228293	0.431912	0.048374
89	C	0.215087	0.432119	0.301906
90	H	0.203898	0.419343	0.272514
91	N	0.225409	0.413364	0.088456
92	O	0.210113	0.4201	0.118958
93	C	0.13874	0.321287	0.338186
94	C	0.157355	0.357866	0.337797
95	C	0.193891	0.37646	0.340407
96	C	0.211781	0.357814	0.342973
97	C	0.193816	0.321246	0.342301
98	C	0.157286	0.303287	0.340228
99	H	0.144022	0.276801	0.34064
100	H	0.144118	0.371107	0.336997
101	C	0.212184	0.30277	0.344019
102	C	0.227147	0.299416	0.384602
103	C	0.215794	0.287431	0.637544
104	H	0.205288	0.289552	0.607825
105	N	0.223441	0.314541	0.424678
106	O	0.207467	0.292078	0.454482
107	C	0.212348	0.413352	0.341595
108	C	0.228293	0.431912	0.381709
109	C	0.215087	0.432119	0.635238
110	H	0.203898	0.419343	0.605847
111	N	0.225409	0.413364	0.421789
112	O	0.210113	0.4201	0.452291
113	C	0.13874	0.321287	0.671517
114	C	0.157355	0.357866	0.671132
115	C	0.193891	0.37646	0.673742
116	C	0.211781	0.357814	0.676307
117	C	0.193816	0.321246	0.675635
118	C	0.157286	0.303287	0.673559
119	H	0.144022	0.276801	0.673974
120	H	0.144118	0.371107	0.670332
121	C	0.212184	0.30277	0.677354
122	C	0.227147	0.299416	0.717937
123	C	0.215794	0.287431	0.970875
124	H	0.205288	0.289552	0.94116
125	N	0.223441	0.314541	0.758013
126	O	0.207467	0.292078	0.787816
127	C	0.212348	0.413352	0.67493
128	C	0.228293	0.431912	0.71504
129	C	0.215087	0.432119	0.968573
130	H	0.203898	0.419343	0.939182
131	N	0.225409	0.413364	0.755123
132	O	0.210113	0.4201	0.785625
133	C	0.13874	0.821286	0.004855
134	C	0.157355	0.857867	0.004466
135	C	0.193892	0.876461	0.007075
136	C	0.211782	0.857815	0.00964
137	C	0.193815	0.821244	0.00897
138	C	0.157284	0.803286	0.006895
139	H	0.144021	0.7768	0.007308
140	H	0.14412	0.871109	0.003663
141	C	0.212184	0.802769	0.010688
142	C	0.227146	0.799415	0.05127
143	C	0.215794	0.787433	0.304211
144	H	0.205289	0.789553	0.274493
145	N	0.223439	0.81454	0.091348
146	O	0.207463	0.792074	0.121148
147	C	0.212347	0.91335	0.008263
148	C	0.228291	0.931914	0.048375
149	C	0.215088	0.932121	0.301905
150	H	0.2039	0.919342	0.272513
151	N	0.225406	0.913366	0.088457
152	O	0.210109	0.920102	0.118957
153	C	0.13874	0.821286	0.338186
154	C	0.157355	0.857867	0.337797
155	C	0.193892	0.876461	0.340407
156	C	0.211782	0.857815	0.342973
157	C	0.193815	0.821244	0.342304
158	C	0.157284	0.803286	0.340228
159	H	0.144021	0.7768	0.34064
160	H	0.14412	0.871109	0.336998
161	C	0.212184	0.802769	0.344019
162	C	0.227146	0.799415	0.384602
163	C	0.215794	0.787433	0.637544
164	H	0.205289	0.789553	0.607825
165	N	0.223439	0.81454	0.424682
166	O	0.207463	0.792074	0.454482
167	C	0.212347	0.91335	0.341595
168	C	0.228291	0.931914	0.381709
169	C	0.215088	0.932121	0.635238
170	H	0.2039	0.919342	0.605847
171	N	0.225406	0.913366	0.421789
172	O	0.210109	0.920102	0.452291
173	C	0.13874	0.821286	0.67152
174	C	0.157355	0.857867	0.671132
175	C	0.193892	0.876461	0.673742
176	C	0.211782	0.857815	0.676307
177	C	0.193815	0.821244	0.675635
178	C	0.157284	0.803286	0.673563
179	H	0.144021	0.7768	0.673974
180	H	0.14412	0.871109	0.670332
181	C	0.212184	0.802769	0.677354
182	C	0.227146	0.799415	0.717937
183	C	0.215794	0.787433	0.970879
184	H	0.205289	0.789553	0.94116
185	N	0.223439	0.81454	0.758013
186	O	0.207463	0.792074	0.787816
187	C	0.212347	0.91335	0.67493
188	C	0.228291	0.931914	0.71504
189	C	0.215088	0.932121	0.968573
190	H	0.2039	0.919342	0.939182
191	N	0.225406	0.913366	0.755123
192	O	0.210109	0.920102	0.785625
193	H	0.238236	0.371027	0.011383
194	H	0.279553	0.141738	0.012108
195	C	0.245135	0.280695	0.051031
196	C	0.249179	0.265584	0.011153
197	C	0.234212	0.269447	0.30439
198	H	0.23606	0.258582	0.274874
199	C	0.267878	0.24717	0.011261
200	C	0.261813	0.221966	0.044537
201	C	0.27984	0.203523	0.044092
202	C	0.293098	0.253509	0.311249
203	H	0.243515	0.216193	0.068953
204	H	0.274601	0.185499	0.06873
205	H	0.256036	0.278777	0.080478
206	O	0.252353	0.336729	0.106785
207	C	0.24632	0.468612	0.047804
208	C	0.249468	0.487571	0.008044
209	C	0.233593	0.468537	0.301722
210	H	0.234794	0.481117	0.272323
211	C	0.268017	0.024689	0.008005
212	C	0.26239	0.043716	0.041892
213	C	0.280367	0.080171	0.041627
214	C	0.292677	0.043688	0.307453
215	H	0.244542	0.031117	0.066776
216	H	0.275515	0.092835	0.066839
217	H	0.257857	0.481578	0.076936
218	O	0.254613	0.420111	0.102776
219	H	0.238236	0.371027	0.344715
220	H	0.279553	0.141738	0.345441
221	C	0.245135	0.280695	0.384366
222	C	0.249179	0.265584	0.344485
223	C	0.234212	0.269447	0.637723
224	H	0.23606	0.258582	0.608207
225	C	0.267878	0.24717	0.344593
226	C	0.261813	0.221966	0.37787
227	C	0.27984	0.203523	0.377425
228	C	0.293098	0.253509	0.644583
229	H	0.243515	0.216193	0.402286
230	H	0.274601	0.185499	0.402063
231	H	0.256036	0.278777	0.413811
232	O	0.252353	0.336729	0.440117
233	C	0.24632	0.468612	0.381138
234	C	0.249468	0.487571	0.341376
235	C	0.233593	0.468537	0.635056
236	H	0.234794	0.481117	0.605655
237	C	0.268017	0.024689	0.341339
238	C	0.26239	0.043716	0.375227
239	C	0.280367	0.080171	0.37496
240	C	0.292677	0.043688	0.640785
241	H	0.244542	0.031117	0.400108
242	H	0.275515	0.092835	0.400172
243	H	0.257857	0.481578	0.41027
244	O	0.254613	0.420111	0.436109
245	H	0.238236	0.371027	0.678049
246	H	0.279553	0.141738	0.678775
247	C	0.245135	0.280695	0.717697
248	C	0.249179	0.265584	0.67782
249	C	0.234212	0.269447	0.971058
250	H	0.23606	0.258582	0.941541
251	C	0.267878	0.24717	0.677928
252	C	0.261813	0.221966	0.711205
253	C	0.27984	0.203523	0.710759
254	C	0.293098	0.253509	0.977918
255	H	0.243515	0.216193	0.73562
256	H	0.274601	0.185499	0.735397
257	H	0.256036	0.278777	0.747146
258	O	0.252353	0.336729	0.773451
259	C	0.24632	0.468612	0.714469
260	C	0.249468	0.487571	0.67471
261	C	0.233593	0.468537	0.968387
262	H	0.234794	0.481117	0.938989
263	C	0.268017	0.024689	0.67467
264	C	0.26239	0.043716	0.708558
265	C	0.280367	0.080171	0.708295
266	C	0.292677	0.043688	0.97412
267	H	0.244542	0.031117	0.733442
268	H	0.275515	0.092835	0.733507
269	H	0.257857	0.481578	0.743604
270	O	0.254613	0.420111	0.769444
271	H	0.238236	0.871029	0.011383
272	H	0.279554	0.641739	0.01211
273	C	0.245133	0.780694	0.051032
274	C	0.249178	0.765583	0.011154
275	C	0.234213	0.769449	0.30439
276	H	0.236061	0.758583	0.274875
277	C	0.267878	0.747169	0.011262
278	C	0.261813	0.721966	0.044539
279	C	0.27984	0.703524	0.044094
280	C	0.293097	0.753507	0.31125
281	H	0.243517	0.716194	0.068956
282	H	0.274602	0.685501	0.068733
283	H	0.256033	0.778773	0.08048
284	O	0.252349	0.836726	0.106789
285	C	0.246318	0.968611	0.047805
286	C	0.249468	0.987573	0.008043
287	C	0.233595	0.968539	0.301721
288	H	0.234796	0.981116	0.272321
289	C	0.268015	0.524688	0.008005
290	C	0.262391	0.543717	0.041894
291	C	0.280367	0.580171	0.041629
292	C	0.292676	0.543688	0.307453
293	H	0.244544	0.531119	0.066778
294	H	0.275517	0.592836	0.066842
295	H	0.257853	0.981579	0.076937
296	O	0.25461	0.920112	0.10278
297	H	0.238236	0.871029	0.344715
298	H	0.279554	0.641739	0.345444
299	C	0.245133	0.780694	0.384366
300	C	0.249178	0.765583	0.344489
301	C	0.234213	0.769449	0.637723
302	H	0.236061	0.758583	0.608207
303	C	0.267878	0.747169	0.344597
304	C	0.261813	0.721966	0.37787
305	C	0.27984	0.703524	0.377428
306	C	0.293097	0.753507	0.644583
307	H	0.243517	0.716194	0.402289
308	H	0.274602	0.685501	0.402066
309	H	0.256033	0.778773	0.413814
310	O	0.252349	0.836726	0.440124
311	C	0.246318	0.968611	0.381138
312	C	0.249468	0.987573	0.341376
313	C	0.233595	0.968539	0.635053
314	H	0.234796	0.981116	0.605655
315	C	0.268015	0.524688	0.341339
316	C	0.262391	0.543717	0.375227
317	C	0.280367	0.580171	0.374964
318	C	0.292676	0.543688	0.640785
319	H	0.244544	0.531119	0.400111
320	H	0.275517	0.592836	0.400176
321	H	0.257853	0.981579	0.41027
322	O	0.25461	0.920112	0.436113
323	H	0.238236	0.871029	0.678049
324	H	0.279554	0.641739	0.678775
325	C	0.245133	0.780694	0.7177
326	C	0.249178	0.765583	0.67782
327	C	0.234213	0.769449	0.971058
328	H	0.236061	0.758583	0.941541
329	C	0.267878	0.747169	0.677928
330	C	0.261813	0.721966	0.711205
331	C	0.27984	0.703524	0.710763
332	C	0.293097	0.753507	0.977918
333	H	0.243517	0.716194	0.735623
334	H	0.274602	0.685501	0.735401
335	H	0.256033	0.778773	0.747146
336	O	0.252349	0.836726	0.773455
337	C	0.246318	0.968611	0.714473
338	C	0.249468	0.987573	0.67471
339	C	0.233595	0.968539	0.968387
340	H	0.234796	0.981116	0.938989
341	C	0.268015	0.524688	0.674673
342	C	0.262391	0.543717	0.708561
343	C	0.280367	0.580171	0.708295
344	C	0.292676	0.543688	0.97412
345	H	0.244544	0.531119	0.733446
346	H	0.275517	0.592836	0.73351
347	H	0.257853	0.981579	0.743604
348	O	0.25461	0.920112	0.769447
349	C	0.379131	0.191655	0.00551
350	C	0.360319	0.155043	0.00475
351	C	0.323771	0.136183	0.007965
352	C	0.306021	0.154985	0.011187
353	C	0.323751	0.191594	0.010331
354	C	0.360312	0.2094	0.007908
355	H	0.37353	0.23588	0.007882
356	H	0.37358	0.141838	0.003764
357	C	0.305263	0.210149	0.010974
358	C	0.311637	0.235611	0.311348
359	H	0.329495	0.240927	0.286446
360	H	0.298674	0.271772	0.286843
361	C	0.305261	0.099119	0.007995
362	C	0.311193	0.080147	0.307716
363	H	0.328702	0.092794	0.282494
364	H	0.297919	0.031067	0.282592
365	C	0.490573	0.247478	0.004449
366	C	0.47166	0.253736	0.037842
367	C	0.435224	0.235745	0.0378
368	C	0.41617	0.210281	0.004831
369	C	0.434995	0.203744	0.304992
370	C	0.471463	0.222259	0.304516
371	H	0.484324	0.271984	0.062272
372	H	0.42266	0.241007	0.062731
373	H	0.422227	0.185696	0.280373
374	H	0.484011	0.216524	0.28009
375	C	0.379131	0.191655	0.338844
376	C	0.360319	0.155043	0.338081
377	C	0.323771	0.136183	0.341298
378	C	0.306021	0.154985	0.344519
379	C	0.323751	0.191594	0.343665
380	C	0.360312	0.2094	0.341241
381	H	0.37353	0.23588	0.341214
382	H	0.37358	0.141838	0.337099
383	C	0.305263	0.210149	0.344306
384	C	0.311637	0.235611	0.644681
385	H	0.329495	0.240927	0.61978
386	H	0.298674	0.271772	0.620178
387	C	0.305261	0.099119	0.341329
388	C	0.311193	0.080147	0.641049
389	H	0.328702	0.092794	0.615827
390	H	0.297919	0.031067	0.615924
391	C	0.490573	0.247478	0.337781
392	C	0.47166	0.253736	0.371176
393	C	0.435224	0.235745	0.371132
394	C	0.41617	0.210281	0.338165
395	C	0.434995	0.203744	0.638324
396	C	0.471463	0.222259	0.637848
397	H	0.484324	0.271984	0.395604
398	H	0.42266	0.241007	0.396064
399	H	0.422227	0.185696	0.613706
400	H	0.484011	0.216524	0.613423
401	C	0.379131	0.191655	0.672175
402	C	0.360319	0.155043	0.671416
403	C	0.323771	0.136183	0.674633
404	C	0.306021	0.154985	0.677854
405	C	0.323751	0.191594	0.676999
406	C	0.360312	0.2094	0.674575
407	H	0.37353	0.23588	0.674548
408	H	0.37358	0.141838	0.670433
409	C	0.305263	0.210149	0.677641
410	C	0.311637	0.235611	0.978016
411	H	0.329495	0.240927	0.953114
412	H	0.298674	0.271772	0.953509
413	C	0.305261	0.099119	0.67466
414	C	0.311193	0.080147	0.974383
415	H	0.328702	0.092794	0.949161
416	H	0.297919	0.031067	0.949259
417	C	0.490573	0.247478	0.671115
418	C	0.47166	0.253736	0.70451
419	C	0.435224	0.235745	0.704466
420	C	0.41617	0.210281	0.6715
421	C	0.434995	0.203744	0.971659
422	C	0.471463	0.222259	0.971183
423	H	0.484324	0.271984	0.728939
424	H	0.42266	0.241007	0.729398
425	H	0.422227	0.185696	0.947041
426	H	0.484011	0.216524	0.946757
427	C	0.37913	0.691655	0.00551
428	C	0.360318	0.655043	0.00475
429	C	0.32377	0.636185	0.007967
430	C	0.306021	0.654986	0.011188
431	C	0.323751	0.691596	0.010332
432	C	0.360313	0.709401	0.007909
433	H	0.373529	0.73588	0.007883
434	H	0.37358	0.64184	0.003768
435	C	0.305262	0.710149	0.010975
436	C	0.311636	0.735611	0.311348
437	H	0.329493	0.740925	0.286446
438	H	0.298672	0.771771	0.286843
439	C	0.30526	0.59912	0.007996
440	C	0.311192	0.580148	0.307716
441	H	0.328701	0.592795	0.282494
442	H	0.297917	0.531067	0.282592
443	C	0.490572	0.747477	0.004449
444	C	0.471661	0.753737	0.037843
445	C	0.435224	0.735745	0.037801
446	C	0.416169	0.71028	0.004834
447	C	0.434994	0.703744	0.304993
448	C	0.471463	0.722258	0.304517
449	H	0.484325	0.771985	0.062273
450	H	0.422661	0.741007	0.062732
451	H	0.422228	0.685697	0.280374
452	H	0.484012	0.716525	0.280091
453	C	0.37913	0.691655	0.338844
454	C	0.360318	0.655043	0.338084
455	C	0.32377	0.636185	0.341298
456	C	0.306021	0.654986	0.344522
457	C	0.323751	0.691596	0.343665
458	C	0.360313	0.709401	0.341244
459	H	0.373529	0.73588	0.341217
460	H	0.37358	0.64184	0.3371
461	C	0.305262	0.710149	0.34431
462	C	0.311636	0.735611	0.644681
463	H	0.329493	0.740925	0.61978
464	H	0.298672	0.771771	0.620175
465	C	0.30526	0.59912	0.341329
466	C	0.311192	0.580148	0.641049
467	H	0.328701	0.592795	0.615827
468	H	0.297917	0.531067	0.615924
469	C	0.490572	0.747477	0.337784
470	C	0.471661	0.753737	0.371176
471	C	0.435224	0.735745	0.371135
472	C	0.416169	0.71028	0.338165
473	C	0.434994	0.703744	0.638327
474	C	0.471463	0.722258	0.637851
475	H	0.484325	0.771985	0.395608
476	H	0.422661	0.741007	0.396067
477	H	0.422228	0.685697	0.613706
478	H	0.484012	0.716525	0.613423
479	C	0.37913	0.691655	0.672178
480	C	0.360318	0.655043	0.671416
481	C	0.32377	0.636185	0.674633
482	C	0.306021	0.654986	0.677854
483	C	0.323751	0.691596	0.676999
484	C	0.360313	0.709401	0.674575
485	H	0.373529	0.73588	0.674548
486	H	0.37358	0.64184	0.670433
487	C	0.305262	0.710149	0.677641
488	C	0.311636	0.735611	0.978016
489	H	0.329493	0.740925	0.953114
490	H	0.298672	0.771771	0.953509
491	C	0.30526	0.59912	0.674663
492	C	0.311192	0.580148	0.974383
493	H	0.328701	0.592795	0.949161
494	H	0.297917	0.531067	0.949259
495	C	0.490572	0.747477	0.671115
496	C	0.471661	0.753737	0.70451
497	C	0.435224	0.735745	0.704466
498	C	0.416169	0.71028	0.6715
499	C	0.434994	0.703744	0.971659
500	C	0.471463	0.722258	0.971183
501	H	0.484325	0.771985	0.728939
502	H	0.422661	0.741007	0.729398
503	H	0.422228	0.685697	0.947041
504	H	0.484012	0.716525	0.946757
505	C	0.63874	0.321287	0.004851
506	C	0.657354	0.357866	0.004463
507	C	0.693891	0.37646	0.007075
508	C	0.711781	0.357814	0.00964
509	C	0.693817	0.321246	0.008969
510	C	0.657287	0.303287	0.006894
511	H	0.738237	0.371027	0.011383
512	H	0.644021	0.276801	0.007306
513	H	0.644119	0.371107	0.003663
514	C	0.879131	0.191655	0.00551
515	C	0.860319	0.155043	0.00475
516	C	0.823771	0.136183	0.007965
517	C	0.806021	0.154985	0.011187
518	C	0.823751	0.191594	0.010331
519	C	0.860314	0.2094	0.007908
520	H	0.779553	0.141738	0.012108
521	H	0.87353	0.23588	0.007882
522	H	0.87358	0.141838	0.003764
523	C	0.712186	0.30277	0.010687
524	C	0.727148	0.299416	0.051268
525	C	0.745134	0.280695	0.051031
526	C	0.749178	0.265584	0.011153
527	C	0.734212	0.269447	0.30439
528	C	0.715794	0.287431	0.30421
529	H	0.736059	0.258582	0.274874
530	H	0.705288	0.289552	0.274493
531	C	0.767878	0.24717	0.011261
532	C	0.761813	0.221966	0.044537
533	C	0.77984	0.203523	0.044092
534	C	0.805262	0.210149	0.010974
535	C	0.811638	0.235611	0.311348
536	C	0.793099	0.253509	0.311249
537	H	0.743515	0.216193	0.068953
538	H	0.774601	0.185499	0.06873
539	H	0.829494	0.240927	0.286446
540	H	0.798674	0.271772	0.286843
541	H	0.756037	0.278777	0.080478
542	N	0.723441	0.314541	0.091346
543	O	0.752354	0.336729	0.106785
544	O	0.707467	0.292078	0.121148
545	C	0.712348	0.413352	0.008263
546	C	0.728293	0.431912	0.048374
547	C	0.74632	0.468612	0.047804
548	C	0.749467	0.487571	0.008044
549	C	0.733592	0.468537	0.301722
550	C	0.715088	0.432119	0.301906
551	H	0.734795	0.481117	0.272323
552	H	0.703898	0.419343	0.272514
553	C	0.768017	0.024689	0.008005
554	C	0.76239	0.043716	0.041892
555	C	0.780367	0.080171	0.041627
556	C	0.805261	0.099119	0.007995
557	C	0.811193	0.080147	0.307716
558	C	0.792677	0.043688	0.307453
559	H	0.744542	0.031117	0.066776
560	H	0.775515	0.092835	0.066839
561	H	0.828702	0.092794	0.282494
562	H	0.797919	0.031067	0.282592
563	H	0.757857	0.481578	0.076936
564	N	0.72541	0.413364	0.088456
565	O	0.754614	0.420111	0.102776
566	O	0.710113	0.4201	0.118958
567	C	0.601871	0.302837	0.005459
568	C	0.583119	0.287643	0.04571
569	C	0.54644	0.269641	0.044802
570	C	0.527687	0.265855	0.004625
571	C	0.546919	0.280972	0.298172
572	C	0.583348	0.299409	0.298633
573	H	0.534485	0.279299	0.268468
574	H	0.596304	0.310122	0.26918
575	C	0.990573	0.247478	0.004449
576	C	0.97166	0.253736	0.037842
577	C	0.935224	0.235745	0.0378
578	C	0.91617	0.210281	0.004831
579	C	0.934995	0.203744	0.304992
580	C	0.971465	0.222259	0.304516
581	H	0.984324	0.271984	0.062272
582	H	0.922663	0.241007	0.062731
583	H	0.922227	0.185696	0.280373
584	H	0.984011	0.216524	0.28009
585	H	0.533338	0.258626	0.074049
586	N	0.60144	0.291134	0.086221
587	O	0.594526	0.262145	0.101585
588	O	0.5946	0.306959	0.115853
589	C	0.63874	0.321287	0.338186
590	C	0.657354	0.357866	0.337797
591	C	0.693891	0.37646	0.340407
592	C	0.711781	0.357814	0.342973
593	C	0.693817	0.321246	0.342301
594	C	0.657287	0.303287	0.340228
595	H	0.738237	0.371027	0.344715
596	H	0.644021	0.276801	0.34064
597	H	0.644119	0.371107	0.336997
598	C	0.879131	0.191655	0.338844
599	C	0.860319	0.155043	0.338081
600	C	0.823771	0.136183	0.341298
601	C	0.806021	0.154985	0.344519
602	C	0.823751	0.191594	0.343665
603	C	0.860314	0.2094	0.341241
604	H	0.779553	0.141738	0.345441
605	H	0.87353	0.23588	0.341214
606	H	0.87358	0.141838	0.337099
607	C	0.712186	0.30277	0.344019
608	C	0.727148	0.299416	0.384602
609	C	0.745134	0.280695	0.384366
610	C	0.749178	0.265584	0.344485
611	C	0.734212	0.269447	0.637723
612	C	0.715794	0.287431	0.637544
613	H	0.736059	0.258582	0.608207
614	H	0.705288	0.289552	0.607825
615	C	0.767878	0.24717	0.344593
616	C	0.761813	0.221966	0.37787
617	C	0.77984	0.203523	0.377425
618	C	0.805262	0.210149	0.344306
619	C	0.811638	0.235611	0.644681
620	C	0.793099	0.253509	0.644583
621	H	0.743515	0.216193	0.402286
622	H	0.774601	0.185499	0.402063
623	H	0.829494	0.240927	0.61978
624	H	0.798674	0.271772	0.620178
625	H	0.756037	0.278777	0.413811
626	N	0.723441	0.314541	0.424678
627	O	0.752354	0.336729	0.440117
628	O	0.707467	0.292078	0.454482
629	C	0.712348	0.413352	0.341595
630	C	0.728293	0.431912	0.381709
631	C	0.74632	0.468612	0.381138
632	C	0.749467	0.487571	0.341376
633	C	0.733592	0.468537	0.635056
634	C	0.715088	0.432119	0.635238
635	H	0.734795	0.481117	0.605655
636	H	0.703898	0.419343	0.605847
637	C	0.768017	0.024689	0.341339
638	C	0.76239	0.043716	0.375227
639	C	0.780367	0.080171	0.37496
640	C	0.805261	0.099119	0.341329
641	C	0.811193	0.080147	0.641049
642	C	0.792677	0.043688	0.640785
643	H	0.744542	0.031117	0.400108
644	H	0.775515	0.092835	0.400172
645	H	0.828702	0.092794	0.615827
646	H	0.797919	0.031067	0.615924
647	H	0.757857	0.481578	0.41027
648	N	0.72541	0.413364	0.421789
649	O	0.754614	0.420111	0.436109
650	O	0.710113	0.4201	0.452291
651	C	0.601871	0.302837	0.338793
652	C	0.583119	0.287643	0.379042
653	C	0.54644	0.269641	0.378137
654	C	0.527687	0.265855	0.33796
655	C	0.546919	0.280972	0.631505
656	C	0.583348	0.299409	0.631967
657	H	0.534485	0.279299	0.601803
658	H	0.596304	0.310122	0.602512
659	C	0.990573	0.247478	0.337781
660	C	0.97166	0.253736	0.371176
661	C	0.935224	0.235745	0.371132
662	C	0.91617	0.210281	0.338165
663	C	0.934995	0.203744	0.638324
664	C	0.971465	0.222259	0.637848
665	H	0.984324	0.271984	0.395604
666	H	0.922663	0.241007	0.396064
667	H	0.922227	0.185696	0.613706
668	H	0.984011	0.216524	0.613423
669	H	0.533338	0.258626	0.407383
670	N	0.60144	0.291134	0.419554
671	O	0.594526	0.262145	0.434918
672	O	0.5946	0.306959	0.449185
673	C	0.63874	0.321287	0.671517
674	C	0.657354	0.357866	0.671132
675	C	0.693891	0.37646	0.673742
676	C	0.711781	0.357814	0.676307
677	C	0.693817	0.321246	0.675635
678	C	0.657287	0.303287	0.673559
679	H	0.738237	0.371027	0.678049
680	H	0.644021	0.276801	0.673974
681	H	0.644119	0.371107	0.670332
682	C	0.879131	0.191655	0.672175
683	C	0.860319	0.155043	0.671416
684	C	0.823771	0.136183	0.674633
685	C	0.806021	0.154985	0.677854
686	C	0.823751	0.191594	0.676999
687	C	0.860314	0.2094	0.674575
688	H	0.779553	0.141738	0.678775
689	H	0.87353	0.23588	0.674548
690	H	0.87358	0.141838	0.670433
691	C	0.712186	0.30277	0.677354
692	C	0.727148	0.299416	0.717937
693	C	0.745134	0.280695	0.717697
694	C	0.749178	0.265584	0.67782
695	C	0.734212	0.269447	0.971058
696	C	0.715794	0.287431	0.970875
697	H	0.736059	0.258582	0.941541
698	H	0.705288	0.289552	0.94116
699	C	0.767878	0.24717	0.677928
700	C	0.761813	0.221966	0.711205
701	C	0.77984	0.203523	0.710759
702	C	0.805262	0.210149	0.677641
703	C	0.811638	0.235611	0.978016
704	C	0.793099	0.253509	0.977918
705	H	0.743515	0.216193	0.73562
706	H	0.774601	0.185499	0.735397
707	H	0.829494	0.240927	0.953114
708	H	0.798674	0.271772	0.953509
709	H	0.756037	0.278777	0.747146
710	N	0.723441	0.314541	0.758013
711	O	0.752354	0.336729	0.773451
712	O	0.707467	0.292078	0.787816
713	C	0.712348	0.413352	0.67493
714	C	0.728293	0.431912	0.71504
715	C	0.74632	0.468612	0.714469
716	C	0.749467	0.487571	0.67471
717	C	0.733592	0.468537	0.968387
718	C	0.715088	0.432119	0.968573
719	H	0.734795	0.481117	0.938989
720	H	0.703898	0.419343	0.939182
721	C	0.768017	0.024689	0.67467
722	C	0.76239	0.043716	0.708558
723	C	0.780367	0.080171	0.708295
724	C	0.805261	0.099119	0.67466
725	C	0.811193	0.080147	0.974383
726	C	0.792677	0.043688	0.97412
727	H	0.744542	0.031117	0.733442
728	H	0.775515	0.092835	0.733507
729	H	0.828702	0.092794	0.949161
730	H	0.797919	0.031067	0.949259
731	H	0.757857	0.481578	0.743604
732	N	0.72541	0.413364	0.755123
733	O	0.754614	0.420111	0.769444
734	O	0.710113	0.4201	0.785625
735	C	0.601871	0.302837	0.672124
736	C	0.583119	0.287643	0.712376
737	C	0.54644	0.269641	0.711468
738	C	0.527687	0.265855	0.671291
739	C	0.546919	0.280972	0.964839
740	C	0.583348	0.299409	0.965298
741	H	0.534485	0.279299	0.935134
742	H	0.596304	0.310122	0.935846
743	C	0.990573	0.247478	0.671115
744	C	0.97166	0.253736	0.70451
745	C	0.935224	0.235745	0.704466
746	C	0.91617	0.210281	0.6715
747	C	0.934995	0.203744	0.971659
748	C	0.971465	0.222259	0.971183
749	H	0.984324	0.271984	0.728939
750	H	0.922663	0.241007	0.729398
751	H	0.922227	0.185696	0.947041
752	H	0.984011	0.216524	0.946757
753	H	0.533338	0.258626	0.740714
754	N	0.60144	0.291134	0.752888
755	O	0.594526	0.262145	0.768252
756	O	0.5946	0.306959	0.782519
757	C	0.63874	0.821286	0.004855
758	C	0.657355	0.857867	0.004466
759	C	0.693892	0.876461	0.007075
760	C	0.711781	0.857815	0.00964
761	C	0.693816	0.821244	0.00897
762	C	0.657286	0.803286	0.006895
763	H	0.738236	0.871029	0.011383
764	H	0.644021	0.7768	0.007308
765	H	0.644119	0.871109	0.003663
766	C	0.879131	0.691655	0.00551
767	C	0.860319	0.655043	0.00475
768	C	0.823771	0.636185	0.007967
769	C	0.806022	0.654986	0.011188
770	C	0.823751	0.691596	0.010332
771	C	0.860312	0.709401	0.007909
772	H	0.779553	0.641739	0.01211
773	H	0.873529	0.73588	0.007883
774	H	0.873581	0.64184	0.003768
775	C	0.712183	0.802769	0.010688
776	C	0.727147	0.799415	0.05127
777	C	0.745133	0.780694	0.051032
778	C	0.749178	0.765583	0.011154
779	C	0.734215	0.769449	0.30439
780	C	0.715795	0.787433	0.304211
781	H	0.736062	0.758583	0.274875
782	H	0.705291	0.789553	0.274493
783	C	0.767878	0.747169	0.011262
784	C	0.761813	0.721966	0.044539
785	C	0.77984	0.703524	0.044094
786	C	0.805262	0.710149	0.010975
787	C	0.811638	0.735611	0.311348
788	C	0.793098	0.753507	0.31125
789	H	0.743518	0.716194	0.068956
790	H	0.774602	0.685501	0.068733
791	H	0.829493	0.740925	0.286446
792	H	0.798673	0.771771	0.286843
793	H	0.756033	0.778773	0.08048
794	N	0.723441	0.81454	0.091348
795	O	0.75235	0.836726	0.106789
796	O	0.707463	0.792074	0.121148
797	C	0.712347	0.91335	0.008263
798	C	0.728291	0.931914	0.048375
799	C	0.746318	0.968611	0.047805
800	C	0.749468	0.987573	0.008043
801	C	0.733595	0.968539	0.301721
802	C	0.715091	0.932121	0.301905
803	H	0.734796	0.981116	0.272321
804	H	0.7039	0.919342	0.272513
805	C	0.768016	0.524688	0.008005
806	C	0.76239	0.543717	0.041894
807	C	0.780367	0.580171	0.041629
808	C	0.805261	0.59912	0.007996
809	C	0.811193	0.580148	0.307716
810	C	0.792677	0.543688	0.307453
811	H	0.744545	0.531119	0.066778
812	H	0.775518	0.592836	0.066842
813	H	0.828703	0.592795	0.282494
814	H	0.797917	0.531067	0.282592
815	H	0.757856	0.981579	0.076937
816	N	0.725406	0.913366	0.088457
817	O	0.75461	0.920112	0.10278
818	O	0.710109	0.920102	0.118957
819	C	0.601871	0.802839	0.005459
820	C	0.583118	0.787642	0.045711
821	C	0.54644	0.76964	0.044803
822	C	0.527686	0.765854	0.004625
823	C	0.546919	0.780973	0.298173
824	C	0.583347	0.79941	0.298634
825	H	0.534485	0.7793	0.26847
826	H	0.596305	0.810123	0.269182
827	C	0.990573	0.747477	0.004449
828	C	0.971661	0.753737	0.037843
829	C	0.935224	0.735745	0.037801
830	C	0.91617	0.71028	0.004834
831	C	0.934995	0.703744	0.304993
832	C	0.971462	0.722258	0.304517
833	H	0.984325	0.771985	0.062273
834	H	0.922661	0.741007	0.062732
835	H	0.922227	0.685697	0.280374
836	H	0.984012	0.716525	0.280091
837	H	0.533337	0.758624	0.07405
838	N	0.60144	0.791133	0.086222
839	O	0.594527	0.762144	0.101585
840	O	0.5946	0.806958	0.115854
841	C	0.63874	0.821286	0.338186
842	C	0.657355	0.857867	0.337797
843	C	0.693892	0.876461	0.340407
844	C	0.711781	0.857815	0.342973
845	C	0.693816	0.821244	0.342304
846	C	0.657286	0.803286	0.340228
847	H	0.738236	0.871029	0.344715
848	H	0.644021	0.7768	0.34064
849	H	0.644119	0.871109	0.336998
850	C	0.879131	0.691655	0.338844
851	C	0.860319	0.655043	0.338084
852	C	0.823771	0.636185	0.341298
853	C	0.806022	0.654986	0.344522
854	C	0.823751	0.691596	0.343665
855	C	0.860312	0.709401	0.341244
856	H	0.779553	0.641739	0.345444
857	H	0.873529	0.73588	0.341217
858	H	0.873581	0.64184	0.3371
859	C	0.712183	0.802769	0.344019
860	C	0.727147	0.799415	0.384602
861	C	0.745133	0.780694	0.384366
862	C	0.749178	0.765583	0.344489
863	C	0.734215	0.769449	0.637723
864	C	0.715795	0.787433	0.637544
865	H	0.736062	0.758583	0.608207
866	H	0.705291	0.789553	0.607825
867	C	0.767878	0.747169	0.344597
868	C	0.761813	0.721966	0.37787
869	C	0.77984	0.703524	0.377428
870	C	0.805262	0.710149	0.34431
871	C	0.811638	0.735611	0.644681
872	C	0.793098	0.753507	0.644583
873	H	0.743518	0.716194	0.402289
874	H	0.774602	0.685501	0.402066
875	H	0.829493	0.740925	0.61978
876	H	0.798673	0.771771	0.620175
877	H	0.756033	0.778773	0.413814
878	N	0.723441	0.81454	0.424682
879	O	0.75235	0.836726	0.440124
880	O	0.707463	0.792074	0.454482
881	C	0.712347	0.91335	0.341595
882	C	0.728291	0.931914	0.381709
883	C	0.746318	0.968611	0.381138
884	C	0.749468	0.987573	0.341376
885	C	0.733595	0.968539	0.635053
886	C	0.715091	0.932121	0.635238
887	H	0.734796	0.981116	0.605655
888	H	0.7039	0.919342	0.605847
889	C	0.768016	0.524688	0.341339
890	C	0.76239	0.543717	0.375227
891	C	0.780367	0.580171	0.374964
892	C	0.805261	0.59912	0.341329
893	C	0.811193	0.580148	0.641049
894	C	0.792677	0.543688	0.640785
895	H	0.744545	0.531119	0.400111
896	H	0.775518	0.592836	0.400176
897	H	0.828703	0.592795	0.615827
898	H	0.797917	0.531067	0.615924
899	H	0.757856	0.981579	0.41027
900	N	0.725406	0.913366	0.421789
901	O	0.75461	0.920112	0.436113
902	O	0.710109	0.920102	0.452291
903	C	0.601871	0.802839	0.338793
904	C	0.583118	0.787642	0.379045
905	C	0.54644	0.76964	0.378137
906	C	0.527686	0.765854	0.33796
907	C	0.546919	0.780973	0.631508
908	C	0.583347	0.79941	0.631967
909	H	0.534485	0.7793	0.601803
910	H	0.596305	0.810123	0.602515
911	C	0.990573	0.747477	0.337784
912	C	0.971661	0.753737	0.371176
913	C	0.935224	0.735745	0.371135
914	C	0.91617	0.71028	0.338165
915	C	0.934995	0.703744	0.638327
916	C	0.971462	0.722258	0.637851
917	H	0.984325	0.771985	0.395608
918	H	0.922661	0.741007	0.396067
919	H	0.922227	0.685697	0.613706
920	H	0.984012	0.716525	0.613423
921	H	0.533337	0.758624	0.407383
922	N	0.60144	0.791133	0.419554
923	O	0.594527	0.762144	0.434918
924	O	0.5946	0.806958	0.449188
925	C	0.63874	0.821286	0.67152
926	C	0.657355	0.857867	0.671132
927	C	0.693892	0.876461	0.673742
928	C	0.711781	0.857815	0.676307
929	C	0.693816	0.821244	0.675635
930	C	0.657286	0.803286	0.673563
931	H	0.738236	0.871029	0.678049
932	H	0.644021	0.7768	0.673974
933	H	0.644119	0.871109	0.670332
934	C	0.879131	0.691655	0.672178
935	C	0.860319	0.655043	0.671416
936	C	0.823771	0.636185	0.674633
937	C	0.806022	0.654986	0.677854
938	C	0.823751	0.691596	0.676999
939	C	0.860312	0.709401	0.674575
940	H	0.779553	0.641739	0.678775
941	H	0.873529	0.73588	0.674548
942	H	0.873581	0.64184	0.670433
943	C	0.712183	0.802769	0.677354
944	C	0.727147	0.799415	0.717937
945	C	0.745133	0.780694	0.7177
946	C	0.749178	0.765583	0.67782
947	C	0.734215	0.769449	0.971058
948	C	0.715795	0.787433	0.970879
949	H	0.736062	0.758583	0.941541
950	H	0.705291	0.789553	0.94116
951	C	0.767878	0.747169	0.677928
952	C	0.761813	0.721966	0.711205
953	C	0.77984	0.703524	0.710763
954	C	0.805262	0.710149	0.677641
955	C	0.811638	0.735611	0.978016
956	C	0.793098	0.753507	0.977918
957	H	0.743518	0.716194	0.735623
958	H	0.774602	0.685501	0.735401
959	H	0.829493	0.740925	0.953114
960	H	0.798673	0.771771	0.953509
961	H	0.756033	0.778773	0.747146
962	N	0.723441	0.81454	0.758013
963	O	0.75235	0.836726	0.773455
964	O	0.707463	0.792074	0.787816
965	C	0.712347	0.91335	0.67493
966	C	0.728291	0.931914	0.71504
967	C	0.746318	0.968611	0.714473
968	C	0.749468	0.987573	0.67471
969	C	0.733595	0.968539	0.968387
970	C	0.715091	0.932121	0.968573
971	H	0.734796	0.981116	0.938989
972	H	0.7039	0.919342	0.939182
973	C	0.768016	0.524688	0.674673
974	C	0.76239	0.543717	0.708561
975	C	0.780367	0.580171	0.708295
976	C	0.805261	0.59912	0.674663
977	C	0.811193	0.580148	0.974383
978	C	0.792677	0.543688	0.97412
979	H	0.744545	0.531119	0.733446
980	H	0.775518	0.592836	0.73351
981	H	0.828703	0.592795	0.949161
982	H	0.797917	0.531067	0.949259
983	H	0.757856	0.981579	0.743604
984	N	0.725406	0.913366	0.755123
985	O	0.75461	0.920112	0.769447
986	O	0.710109	0.920102	0.785625
987	C	0.601871	0.802839	0.672128
988	C	0.583118	0.787642	0.712376
989	C	0.54644	0.76964	0.711472
990	C	0.527686	0.765854	0.671294
991	C	0.546919	0.780973	0.964839
992	C	0.583347	0.79941	0.965302
993	H	0.534485	0.7793	0.935137
994	H	0.596305	0.810123	0.93585
995	C	0.990573	0.747477	0.671115
996	C	0.971661	0.753737	0.70451
997	C	0.935224	0.735745	0.704466
998	C	0.91617	0.71028	0.6715
999	C	0.934995	0.703744	0.971659
1000	C	0.971462	0.722258	0.971183
1001	H	0.984325	0.771985	0.728939
1002	H	0.922661	0.741007	0.729398
1003	H	0.922227	0.685697	0.947041
1004	H	0.984012	0.716525	0.946757
1005	H	0.533337	0.758624	0.740718
1006	N	0.60144	0.791133	0.752888
1007	O	0.594527	0.762144	0.768252
1008	O	0.5946	0.806958	0.782522
