data_C360H144N216O144_2018-02-15_10:45:29
#******************************************
#
# CIF file created by Zeo++
# Zeo++ is an open source package to
# analyze microporous materials
#
#*******************************************

_cell_length_a		45.1511   
_cell_length_b		45.151   
_cell_length_c		29.5426   
_cell_angle_alpha		90   
_cell_angle_beta		90   
_cell_angle_gamma		120   

_symmetry_space_group_name_H-M		'P1'
_symmetry_Int_Tables_number		1
_symmetry_cell_setting		Monoclinic

loop_
_symmetry_equiv_pos_as_xyz
'+x,+y,+z'

loop_
_atom_site_label
_atom_site_type_symbol
_atom_site_fract_x
_atom_site_fract_y
_atom_site_fract_z
1	C	0.143319	0.320882	0.007862
2	N	0.16371	0.306678	0.007869
3	N	0.158447	0.35564	0.007869
4	N	0.108927	0.299742	0.007866
5	C	0.048313	0.282999	0.34063
6	C	0.023704	0.293484	0.337556
7	H	0.031758	0.319033	0.334607
8	C	0.035938	0.247568	0.011
9	H	0.052985	0.238961	0.013591
10	C	0.083625	0.307639	0.340061
11	H	0.090639	0.332983	0.338146
12	C	0.143319	0.320882	0.341195
13	N	0.16371	0.306678	0.341202
14	N	0.158447	0.35564	0.341202
15	N	0.108927	0.299742	0.341202
16	C	0.048313	0.282999	0.673965
17	C	0.023704	0.293484	0.670891
18	H	0.031758	0.319033	0.66794
19	C	0.035938	0.247568	0.344333
20	H	0.052985	0.238961	0.346926
21	C	0.083625	0.307639	0.673393
22	H	0.090639	0.332983	0.67148
23	C	0.143319	0.320882	0.67453
24	N	0.16371	0.306678	0.674537
25	N	0.158447	0.35564	0.674537
26	N	0.108927	0.299742	0.674533
27	C	0.048313	0.282999	0.007297
28	C	0.023704	0.293484	0.004223
29	H	0.031758	0.319033	0.001275
30	C	0.035938	0.247568	0.677668
31	H	0.052985	0.238961	0.680257
32	C	0.083625	0.307639	0.006728
33	H	0.090639	0.332983	0.004812
34	C	0.143319	0.820882	0.007862
35	N	0.16371	0.806678	0.007869
36	N	0.158448	0.85564	0.007869
37	N	0.108927	0.799743	0.007866
38	C	0.048313	0.782999	0.34063
39	C	0.023703	0.793485	0.337556
40	H	0.031757	0.819033	0.334607
41	C	0.035938	0.747569	0.011
42	H	0.052984	0.738961	0.013591
43	C	0.083625	0.80764	0.340061
44	H	0.090639	0.832984	0.338146
45	C	0.143319	0.820882	0.341195
46	N	0.16371	0.806678	0.341202
47	N	0.158448	0.85564	0.341202
48	N	0.108927	0.799743	0.341202
49	C	0.048313	0.782999	0.673965
50	C	0.023703	0.793485	0.670891
51	H	0.031757	0.819033	0.66794
52	C	0.035938	0.747569	0.344333
53	H	0.052984	0.738961	0.346926
54	C	0.083625	0.80764	0.673393
55	H	0.090639	0.832984	0.67148
56	C	0.143319	0.820882	0.67453
57	N	0.16371	0.806678	0.674537
58	N	0.158448	0.85564	0.674537
59	N	0.108927	0.799743	0.674533
60	C	0.048313	0.782999	0.007297
61	C	0.023703	0.793485	0.004223
62	H	0.031757	0.819033	0.001275
63	C	0.035938	0.747569	0.677668
64	H	0.052984	0.738961	0.680257
65	C	0.083625	0.80764	0.006728
66	H	0.090639	0.832984	0.004812
67	C	0.198469	0.326309	0.007861
68	N	0.212671	0.360903	0.007867
69	C	0.193043	0.376032	0.00786
70	N	0.206295	0.410425	0.007864
71	N	0.219608	0.313056	0.007865
72	C	0.236352	0.269186	0.34063
73	C	0.225865	0.23409	0.337554
74	C	0.249424	0.22196	0.337864
75	H	0.200317	0.216596	0.334594
76	C	0.271781	0.292239	0.011001
77	H	0.280387	0.317892	0.013605
78	N	0.2368	0.186347	0.333571
79	O	0.217045	0.169623	0.365465
80	O	0.221597	0.174812	0.296557
81	C	0.211709	0.279856	0.340058
82	H	0.186367	0.261527	0.338144
83	C	0.250165	0.471038	0.340626
84	C	0.273921	0.043691	0.008492
85	C	0.238343	0.018924	0.011851
86	C	0.227111	0.483413	0.011005
87	H	0.201457	0.466365	0.013601
88	N	0.213747	0.029542	0.016679
89	O	0.197736	0.019595	0.053463
90	O	0.192664	0.019284	0.98457
91	C	0.239494	0.435725	0.340054
92	H	0.257823	0.42871	0.338137
93	H	0.266416	0.086354	0.010776
94	C	0.198469	0.326309	0.341195
95	N	0.212671	0.360903	0.341202
96	C	0.193043	0.376032	0.341195
97	N	0.206295	0.410425	0.341198
98	N	0.219608	0.313056	0.341198
99	C	0.236352	0.269186	0.673961
100	C	0.225865	0.23409	0.670888
101	C	0.249424	0.22196	0.671199
102	H	0.200317	0.216596	0.667929
103	C	0.271781	0.292239	0.344336
104	H	0.280387	0.317892	0.346939
105	N	0.2368	0.186347	0.666904
106	O	0.217045	0.169623	0.6988
107	O	0.221597	0.174812	0.62989
108	C	0.211709	0.279856	0.673393
109	H	0.186367	0.261527	0.671477
110	C	0.250165	0.471038	0.673958
111	C	0.273921	0.043691	0.341825
112	C	0.238343	0.018924	0.345186
113	C	0.227111	0.483413	0.34434
114	H	0.201457	0.466365	0.346936
115	N	0.213747	0.029542	0.350013
116	O	0.197736	0.019595	0.386797
117	O	0.192664	0.019284	0.317901
118	C	0.239494	0.435725	0.673389
119	H	0.257823	0.42871	0.67147
120	H	0.266416	0.086354	0.344109
121	C	0.198469	0.326309	0.674527
122	N	0.212671	0.360903	0.674533
123	C	0.193043	0.376032	0.674527
124	N	0.206295	0.410425	0.674533
125	N	0.219608	0.313056	0.674533
126	C	0.236352	0.269186	0.007297
127	C	0.225865	0.23409	0.004223
128	C	0.249424	0.22196	0.004531
129	H	0.200317	0.216596	0.001261
130	C	0.271781	0.292239	0.677668
131	H	0.280387	0.317892	0.680271
132	N	0.2368	0.186347	0.000239
133	O	0.217045	0.169623	0.032133
134	O	0.221597	0.174812	0.963225
135	C	0.211709	0.279856	0.006728
136	H	0.186367	0.261527	0.004812
137	C	0.250165	0.471038	0.007293
138	C	0.273921	0.043691	0.67516
139	C	0.238343	0.018924	0.678518
140	C	0.227111	0.483413	0.677671
141	H	0.201457	0.466365	0.680268
142	N	0.213747	0.029542	0.683348
143	O	0.197736	0.019595	0.720132
144	O	0.192664	0.019284	0.651235
145	C	0.239494	0.435725	0.006724
146	H	0.257823	0.42871	0.004805
147	H	0.266416	0.086354	0.677445
148	C	0.198467	0.826307	0.007861
149	N	0.212671	0.860903	0.007867
150	C	0.193043	0.876033	0.00786
151	N	0.206295	0.910423	0.007864
152	N	0.219608	0.813057	0.007865
153	C	0.236351	0.769184	0.34063
154	C	0.225865	0.734091	0.337554
155	C	0.249423	0.721959	0.337864
156	H	0.200317	0.716596	0.334594
157	C	0.271781	0.792239	0.011001
158	H	0.280387	0.817893	0.013605
159	N	0.2368	0.686347	0.333571
160	O	0.217045	0.669624	0.365465
161	O	0.221597	0.674813	0.296557
162	C	0.211709	0.779856	0.340058
163	H	0.186367	0.761527	0.338144
164	C	0.250164	0.971038	0.340626
165	C	0.273922	0.543692	0.008492
166	C	0.238344	0.518925	0.011851
167	C	0.227109	0.983411	0.011005
168	H	0.201457	0.966366	0.013601
169	N	0.213747	0.529541	0.016679
170	O	0.197736	0.519596	0.053463
171	O	0.192663	0.519284	0.98457
172	C	0.239492	0.935723	0.340054
173	H	0.257823	0.928711	0.338137
174	H	0.266417	0.586354	0.010776
175	C	0.198467	0.826307	0.341195
176	N	0.212671	0.860903	0.341202
177	C	0.193043	0.876033	0.341195
178	N	0.206295	0.910423	0.341198
179	N	0.219608	0.813057	0.341198
180	C	0.236351	0.769184	0.673961
181	C	0.225865	0.734091	0.670888
182	C	0.249423	0.721959	0.671199
183	H	0.200317	0.716596	0.667929
184	C	0.271781	0.792239	0.344336
185	H	0.280387	0.817893	0.346939
186	N	0.2368	0.686347	0.666904
187	O	0.217045	0.669624	0.6988
188	O	0.221597	0.674813	0.62989
189	C	0.211709	0.779856	0.673393
190	H	0.186367	0.761527	0.671477
191	C	0.250164	0.971038	0.673958
192	C	0.273922	0.543692	0.341825
193	C	0.238344	0.518925	0.345186
194	C	0.227109	0.983411	0.34434
195	H	0.201457	0.966366	0.346936
196	N	0.213747	0.529541	0.350013
197	O	0.197736	0.519596	0.386797
198	O	0.192663	0.519284	0.317901
199	C	0.239492	0.935723	0.673389
200	H	0.257823	0.928711	0.67147
201	H	0.266417	0.586354	0.344109
202	C	0.198467	0.826307	0.674527
203	N	0.212671	0.860903	0.674533
204	C	0.193043	0.876033	0.674527
205	N	0.206295	0.910423	0.674533
206	N	0.219608	0.813057	0.674533
207	C	0.236351	0.769184	0.007297
208	C	0.225865	0.734091	0.004223
209	C	0.249423	0.721959	0.004531
210	H	0.200317	0.716596	0.001261
211	C	0.271781	0.792239	0.677668
212	H	0.280387	0.817893	0.680271
213	N	0.2368	0.686347	0.000239
214	O	0.217045	0.669624	0.032133
215	O	0.221597	0.674813	0.963225
216	C	0.211709	0.779856	0.006728
217	H	0.186367	0.761527	0.004812
218	C	0.250164	0.971038	0.007293
219	C	0.273922	0.543692	0.67516
220	C	0.238344	0.518925	0.678518
221	C	0.227109	0.983411	0.677671
222	H	0.201457	0.966366	0.680268
223	N	0.213747	0.529541	0.683348
224	O	0.197736	0.519596	0.720132
225	O	0.192663	0.519284	0.651235
226	C	0.239492	0.935723	0.006724
227	H	0.257823	0.928711	0.004805
228	H	0.266417	0.586354	0.677445
229	N	0.359238	0.208784	0.008146
230	C	0.324519	0.188891	0.008156
231	N	0.310565	0.154325	0.008144
232	C	0.33046	0.139498	0.008154
233	N	0.317536	0.105171	0.008114
234	N	0.303115	0.201814	0.008118
235	C	0.285248	0.245428	0.008497
236	C	0.29606	0.281006	0.011854
237	N	0.331274	0.305604	0.016682
238	O	0.337338	0.321616	0.053465
239	O	0.3421	0.326684	0.98457
240	C	0.310085	0.234727	0.009054
241	H	0.335416	0.252933	0.010781
242	C	0.28526	0.495645	0.33755
243	C	0.29739	0.031334	0.33786
244	H	0.302753	0.487592	0.334587
245	N	0.333001	0.054324	0.333564
246	O	0.349727	0.051292	0.365458
247	O	0.344535	0.050654	0.296549
248	C	0.284623	0.079229	0.009049
249	N	0.359238	0.208784	0.341479
250	C	0.324519	0.188891	0.341489
251	N	0.310565	0.154325	0.341479
252	C	0.33046	0.139498	0.341486
253	N	0.317536	0.105171	0.341449
254	N	0.303115	0.201814	0.341452
255	C	0.285248	0.245428	0.341831
256	C	0.29606	0.281006	0.345189
257	N	0.331274	0.305604	0.350016
258	O	0.337338	0.321616	0.3868
259	O	0.3421	0.326684	0.317902
260	C	0.310085	0.234727	0.342386
261	H	0.335416	0.252933	0.344116
262	C	0.28526	0.495645	0.670885
263	C	0.29739	0.031334	0.671196
264	H	0.302753	0.487592	0.667923
265	N	0.333001	0.054324	0.666897
266	O	0.349727	0.051292	0.69879
267	O	0.344535	0.050654	0.629883
268	C	0.284623	0.079229	0.342383
269	N	0.359238	0.208784	0.674814
270	C	0.324519	0.188891	0.674825
271	N	0.310565	0.154325	0.674811
272	C	0.33046	0.139498	0.674821
273	N	0.317536	0.105171	0.674781
274	N	0.303115	0.201814	0.674784
275	C	0.285248	0.245428	0.675163
276	C	0.29606	0.281006	0.678521
277	N	0.331274	0.305604	0.683351
278	O	0.337338	0.321616	0.720132
279	O	0.3421	0.326684	0.651235
280	C	0.310085	0.234727	0.675722
281	H	0.335416	0.252933	0.677448
282	C	0.28526	0.495645	0.004216
283	C	0.29739	0.031334	0.004528
284	H	0.302753	0.487592	0.001254
285	N	0.333001	0.054324	0.000232
286	O	0.349727	0.051292	0.032123
287	O	0.344535	0.050654	0.963218
288	C	0.284623	0.079229	0.675715
289	N	0.359238	0.708783	0.008146
290	C	0.324518	0.688891	0.008156
291	N	0.310565	0.654325	0.008144
292	C	0.330458	0.639497	0.008154
293	N	0.317535	0.605172	0.008114
294	N	0.303114	0.701814	0.008118
295	C	0.285248	0.745428	0.008497
296	C	0.29606	0.781007	0.011854
297	N	0.331273	0.805602	0.016682
298	O	0.337337	0.821616	0.053465
299	O	0.3421	0.826685	0.98457
300	C	0.310085	0.734728	0.009054
301	H	0.335416	0.752934	0.010781
302	C	0.285259	0.995646	0.33755
303	C	0.297389	0.531334	0.33786
304	H	0.302753	0.987593	0.334587
305	N	0.333001	0.554323	0.333564
306	O	0.349727	0.551292	0.365458
307	O	0.344536	0.550655	0.296549
308	C	0.284623	0.579229	0.009049
309	N	0.359238	0.708783	0.341479
310	C	0.324518	0.688891	0.341489
311	N	0.310565	0.654325	0.341479
312	C	0.330458	0.639497	0.341486
313	N	0.317535	0.605172	0.341449
314	N	0.303114	0.701814	0.341452
315	C	0.285248	0.745428	0.341831
316	C	0.29606	0.781007	0.345189
317	N	0.331273	0.805602	0.350016
318	O	0.337337	0.821616	0.3868
319	O	0.3421	0.826685	0.317902
320	C	0.310085	0.734728	0.342386
321	H	0.335416	0.752934	0.344116
322	C	0.285259	0.995646	0.670885
323	C	0.297389	0.531334	0.671196
324	H	0.302753	0.987593	0.667923
325	N	0.333001	0.554323	0.666897
326	O	0.349727	0.551292	0.69879
327	O	0.344536	0.550655	0.629883
328	C	0.284623	0.579229	0.342383
329	N	0.359238	0.708783	0.674814
330	C	0.324518	0.688891	0.674825
331	N	0.310565	0.654325	0.674811
332	C	0.330458	0.639497	0.674821
333	N	0.317535	0.605172	0.674781
334	N	0.303114	0.701814	0.674784
335	C	0.285248	0.745428	0.675163
336	C	0.29606	0.781007	0.678521
337	N	0.331273	0.805602	0.683351
338	O	0.337337	0.821616	0.720132
339	O	0.3421	0.826685	0.651235
340	C	0.310085	0.734728	0.675722
341	H	0.335416	0.752934	0.677448
342	C	0.285259	0.995646	0.004216
343	C	0.297389	0.531334	0.004528
344	H	0.302753	0.987593	0.001254
345	N	0.333001	0.554323	0.000232
346	O	0.349727	0.551292	0.032123
347	O	0.344536	0.550655	0.963218
348	C	0.284623	0.579229	0.675715
349	C	0.379852	0.194831	0.008155
350	N	0.365025	0.160111	0.008143
351	N	0.414178	0.216234	0.008117
352	C	0.488016	0.269928	0.33787
353	C	0.475657	0.234101	0.008494
354	C	0.500425	0.223289	0.011845
355	N	0.465026	0.282551	0.333586
356	N	0.489808	0.188074	0.016661
357	O	0.46806	0.302302	0.365485
358	O	0.499756	0.182003	0.05344
359	O	0.468691	0.297758	0.296576
360	O	0.500066	0.177255	0.984543
361	C	0.440121	0.209264	0.00905
362	H	0.432997	0.183933	0.010773
363	C	0.379852	0.194831	0.341489
364	N	0.365025	0.160111	0.341476
365	N	0.414178	0.216234	0.341452
366	C	0.488016	0.269928	0.671203
367	C	0.475657	0.234101	0.341828
368	C	0.500425	0.223289	0.345179
369	N	0.465026	0.282551	0.666921
370	N	0.489808	0.188074	0.349996
371	O	0.46806	0.302302	0.69882
372	O	0.499756	0.182003	0.386773
373	O	0.468691	0.297758	0.62991
374	O	0.500066	0.177255	0.317876
375	C	0.440121	0.209264	0.342383
376	H	0.432997	0.183933	0.344106
377	C	0.379852	0.194831	0.674821
378	N	0.365025	0.160111	0.674811
379	N	0.414178	0.216234	0.674784
380	C	0.488016	0.269928	0.004538
381	C	0.475657	0.234101	0.675163
382	C	0.500425	0.223289	0.678511
383	N	0.465026	0.282551	0.000252
384	N	0.489808	0.188074	0.683328
385	O	0.46806	0.302302	0.032152
386	O	0.499756	0.182003	0.720108
387	O	0.468691	0.297758	0.963245
388	O	0.500066	0.177255	0.651211
389	C	0.440121	0.209264	0.675718
390	H	0.432997	0.183933	0.677441
391	C	0.379851	0.694832	0.008155
392	N	0.365024	0.66011	0.008143
393	N	0.414178	0.716235	0.008117
394	C	0.488014	0.769926	0.33787
395	C	0.475658	0.734101	0.008494
396	C	0.500424	0.723289	0.011845
397	N	0.465026	0.782552	0.333586
398	N	0.489808	0.688076	0.016661
399	O	0.468059	0.802303	0.365485
400	O	0.499755	0.682004	0.05344
401	O	0.468692	0.797758	0.296576
402	O	0.500065	0.677255	0.984543
403	C	0.44012	0.709264	0.00905
404	H	0.432995	0.683933	0.010773
405	C	0.379851	0.694832	0.341489
406	N	0.365024	0.66011	0.341476
407	N	0.414178	0.716235	0.341452
408	C	0.488014	0.769926	0.671203
409	C	0.475658	0.734101	0.341828
410	C	0.500424	0.723289	0.345179
411	N	0.465026	0.782552	0.666921
412	N	0.489808	0.688076	0.349996
413	O	0.468059	0.802303	0.69882
414	O	0.499755	0.682004	0.386773
415	O	0.468692	0.797758	0.62991
416	O	0.500065	0.677255	0.317876
417	C	0.44012	0.709264	0.342383
418	H	0.432995	0.683933	0.344106
419	C	0.379851	0.694832	0.674821
420	N	0.365024	0.66011	0.674811
421	N	0.414178	0.716235	0.674784
422	C	0.488014	0.769926	0.004538
423	C	0.475658	0.734101	0.675163
424	C	0.500424	0.723289	0.678511
425	N	0.465026	0.782552	0.000252
426	N	0.489808	0.688076	0.683328
427	O	0.468059	0.802303	0.032152
428	O	0.499755	0.682004	0.720108
429	O	0.468692	0.797758	0.963245
430	O	0.500065	0.677255	0.651211
431	C	0.44012	0.709264	0.675718
432	H	0.432995	0.683933	0.677441
433	C	0.643319	0.320882	0.007862
434	N	0.663709	0.306678	0.007869
435	C	0.698468	0.326309	0.007861
436	N	0.712671	0.360903	0.007867
437	C	0.693042	0.376032	0.00786
438	N	0.658448	0.35564	0.007869
439	N	0.608927	0.299742	0.007866
440	N	0.706296	0.410425	0.007864
441	N	0.719608	0.313056	0.007865
442	C	0.87985	0.194831	0.008155
443	N	0.859239	0.208784	0.008146
444	C	0.824518	0.188891	0.008156
445	N	0.810564	0.154325	0.008144
446	C	0.830459	0.139498	0.008154
447	N	0.865024	0.160111	0.008143
448	N	0.914177	0.216234	0.008117
449	N	0.817535	0.105171	0.008114
450	N	0.803114	0.201814	0.008118
451	C	0.736352	0.269186	0.34063
452	C	0.725865	0.23409	0.337554
453	C	0.749422	0.22196	0.337864
454	C	0.785247	0.245428	0.008497
455	C	0.796059	0.281006	0.011854
456	H	0.700317	0.216596	0.334594
457	C	0.77178	0.292239	0.011001
458	H	0.780386	0.317892	0.013605
459	N	0.736801	0.186347	0.333571
460	N	0.831274	0.305604	0.016682
461	O	0.717044	0.169623	0.365465
462	O	0.837338	0.321616	0.053465
463	O	0.721596	0.174812	0.296557
464	O	0.842101	0.326684	0.98457
465	C	0.71171	0.279856	0.340058
466	H	0.686366	0.261527	0.338144
467	C	0.810084	0.234727	0.009054
468	H	0.835415	0.252933	0.010781
469	C	0.750164	0.471038	0.340626
470	C	0.78526	0.495645	0.33755
471	C	0.797389	0.031334	0.33786
472	C	0.773922	0.043691	0.008492
473	C	0.738344	0.018924	0.011851
474	H	0.802752	0.487592	0.334587
475	C	0.72711	0.483413	0.011005
476	H	0.701457	0.466365	0.013601
477	N	0.833003	0.054324	0.333564
478	N	0.713746	0.029542	0.016679
479	O	0.849728	0.051292	0.365458
480	O	0.697736	0.019595	0.053463
481	O	0.844534	0.050654	0.296549
482	O	0.692664	0.019284	0.98457
483	C	0.739493	0.435725	0.340054
484	H	0.757823	0.42871	0.338137
485	C	0.784622	0.079229	0.009049
486	H	0.766417	0.086354	0.010776
487	C	0.548313	0.282999	0.34063
488	C	0.523703	0.293484	0.337556
489	C	0.988015	0.269928	0.33787
490	C	0.975659	0.234101	0.008494
491	C	0.000424	0.223289	0.011845
492	H	0.531757	0.319033	0.334607
493	C	0.535938	0.247568	0.011
494	H	0.552985	0.238961	0.013591
495	N	0.965025	0.282551	0.333586
496	N	0.989807	0.188074	0.016661
497	O	0.968059	0.302302	0.365485
498	O	0.999755	0.182003	0.05344
499	O	0.968692	0.297758	0.296576
500	O	6.4e-05	0.177255	0.984543
501	C	0.583625	0.307639	0.340061
502	H	0.590638	0.332983	0.338146
503	C	0.94012	0.209264	0.00905
504	H	0.932996	0.183933	0.010773
505	C	0.643319	0.320882	0.341195
506	N	0.663709	0.306678	0.341202
507	C	0.698468	0.326309	0.341195
508	N	0.712671	0.360903	0.341202
509	C	0.693042	0.376032	0.341195
510	N	0.658448	0.35564	0.341202
511	N	0.608927	0.299742	0.341202
512	N	0.706296	0.410425	0.341198
513	N	0.719608	0.313056	0.341198
514	C	0.87985	0.194831	0.341489
515	N	0.859239	0.208784	0.341479
516	C	0.824518	0.188891	0.341489
517	N	0.810564	0.154325	0.341479
518	C	0.830459	0.139498	0.341486
519	N	0.865024	0.160111	0.341476
520	N	0.914177	0.216234	0.341452
521	N	0.817535	0.105171	0.341449
522	N	0.803114	0.201814	0.341452
523	C	0.736352	0.269186	0.673961
524	C	0.725865	0.23409	0.670888
525	C	0.749422	0.22196	0.671199
526	C	0.785247	0.245428	0.341831
527	C	0.796059	0.281006	0.345189
528	H	0.700317	0.216596	0.667929
529	C	0.77178	0.292239	0.344336
530	H	0.780386	0.317892	0.346939
531	N	0.736801	0.186347	0.666904
532	N	0.831274	0.305604	0.350016
533	O	0.717044	0.169623	0.6988
534	O	0.837338	0.321616	0.3868
535	O	0.721596	0.174812	0.62989
536	O	0.842101	0.326684	0.317902
537	C	0.71171	0.279856	0.673393
538	H	0.686366	0.261527	0.671477
539	C	0.810084	0.234727	0.342386
540	H	0.835415	0.252933	0.344116
541	C	0.750164	0.471038	0.673958
542	C	0.78526	0.495645	0.670885
543	C	0.797389	0.031334	0.671196
544	C	0.773922	0.043691	0.341825
545	C	0.738344	0.018924	0.345186
546	H	0.802752	0.487592	0.667923
547	C	0.72711	0.483413	0.34434
548	H	0.701457	0.466365	0.346936
549	N	0.833003	0.054324	0.666897
550	N	0.713746	0.029542	0.350013
551	O	0.849728	0.051292	0.69879
552	O	0.697736	0.019595	0.386797
553	O	0.844534	0.050654	0.629883
554	O	0.692664	0.019284	0.317901
555	C	0.739493	0.435725	0.673389
556	H	0.757823	0.42871	0.67147
557	C	0.784622	0.079229	0.342383
558	H	0.766417	0.086354	0.344109
559	C	0.548313	0.282999	0.673965
560	C	0.523703	0.293484	0.670891
561	C	0.988015	0.269928	0.671203
562	C	0.975659	0.234101	0.341828
563	C	0.000424	0.223289	0.345179
564	H	0.531757	0.319033	0.66794
565	C	0.535938	0.247568	0.344333
566	H	0.552985	0.238961	0.346926
567	N	0.965025	0.282551	0.666921
568	N	0.989807	0.188074	0.349996
569	O	0.968059	0.302302	0.69882
570	O	0.999755	0.182003	0.386773
571	O	0.968692	0.297758	0.62991
572	O	6.4e-05	0.177255	0.317876
573	C	0.583625	0.307639	0.673393
574	H	0.590638	0.332983	0.67148
575	C	0.94012	0.209264	0.342383
576	H	0.932996	0.183933	0.344106
577	C	0.643319	0.320882	0.67453
578	N	0.663709	0.306678	0.674537
579	C	0.698468	0.326309	0.674527
580	N	0.712671	0.360903	0.674533
581	C	0.693042	0.376032	0.674527
582	N	0.658448	0.35564	0.674537
583	N	0.608927	0.299742	0.674533
584	N	0.706296	0.410425	0.674533
585	N	0.719608	0.313056	0.674533
586	C	0.87985	0.194831	0.674821
587	N	0.859239	0.208784	0.674814
588	C	0.824518	0.188891	0.674825
589	N	0.810564	0.154325	0.674811
590	C	0.830459	0.139498	0.674821
591	N	0.865024	0.160111	0.674811
592	N	0.914177	0.216234	0.674784
593	N	0.817535	0.105171	0.674781
594	N	0.803114	0.201814	0.674784
595	C	0.736352	0.269186	0.007297
596	C	0.725865	0.23409	0.004223
597	C	0.749422	0.22196	0.004531
598	C	0.785247	0.245428	0.675163
599	C	0.796059	0.281006	0.678521
600	H	0.700317	0.216596	0.001261
601	C	0.77178	0.292239	0.677668
602	H	0.780386	0.317892	0.680271
603	N	0.736801	0.186347	0.000239
604	N	0.831274	0.305604	0.683351
605	O	0.717044	0.169623	0.032133
606	O	0.837338	0.321616	0.720132
607	O	0.721596	0.174812	0.963225
608	O	0.842101	0.326684	0.651235
609	C	0.71171	0.279856	0.006728
610	H	0.686366	0.261527	0.004812
611	C	0.810084	0.234727	0.675722
612	H	0.835415	0.252933	0.677448
613	C	0.750164	0.471038	0.007293
614	C	0.78526	0.495645	0.004216
615	C	0.797389	0.031334	0.004528
616	C	0.773922	0.043691	0.67516
617	C	0.738344	0.018924	0.678518
618	H	0.802752	0.487592	0.001254
619	C	0.72711	0.483413	0.677671
620	H	0.701457	0.466365	0.680268
621	N	0.833003	0.054324	0.000232
622	N	0.713746	0.029542	0.683348
623	O	0.849728	0.051292	0.032123
624	O	0.697736	0.019595	0.720132
625	O	0.844534	0.050654	0.963218
626	O	0.692664	0.019284	0.651235
627	C	0.739493	0.435725	0.006724
628	H	0.757823	0.42871	0.004805
629	C	0.784622	0.079229	0.675715
630	H	0.766417	0.086354	0.677445
631	C	0.548313	0.282999	0.007297
632	C	0.523703	0.293484	0.004223
633	C	0.988015	0.269928	0.004538
634	C	0.975659	0.234101	0.675163
635	C	0.000424	0.223289	0.678511
636	H	0.531757	0.319033	0.001275
637	C	0.535938	0.247568	0.677668
638	H	0.552985	0.238961	0.680257
639	N	0.965025	0.282551	0.000252
640	N	0.989807	0.188074	0.683328
641	O	0.968059	0.302302	0.032152
642	O	0.999755	0.182003	0.720108
643	O	0.968692	0.297758	0.963245
644	O	6.4e-05	0.177255	0.651211
645	C	0.583625	0.307639	0.006728
646	H	0.590638	0.332983	0.004812
647	C	0.94012	0.209264	0.675718
648	H	0.932996	0.183933	0.677441
649	C	0.643318	0.820882	0.007862
650	N	0.663708	0.806678	0.007869
651	C	0.698468	0.826307	0.007861
652	N	0.712672	0.860903	0.007867
653	C	0.693041	0.876033	0.00786
654	N	0.658447	0.85564	0.007869
655	N	0.608926	0.799743	0.007866
656	N	0.706294	0.910423	0.007864
657	N	0.719607	0.813057	0.007865
658	C	0.879852	0.694832	0.008155
659	N	0.859238	0.708783	0.008146
660	C	0.824517	0.688891	0.008156
661	N	0.810565	0.654325	0.008144
662	C	0.830458	0.639497	0.008154
663	N	0.865023	0.66011	0.008143
664	N	0.914179	0.716235	0.008117
665	N	0.817534	0.605172	0.008114
666	N	0.803114	0.701814	0.008118
667	C	0.73635	0.769184	0.34063
668	C	0.725864	0.734091	0.337554
669	C	0.749423	0.721959	0.337864
670	C	0.785248	0.745428	0.008497
671	C	0.796061	0.781007	0.011854
672	H	0.700315	0.716596	0.334594
673	C	0.77178	0.792239	0.011001
674	H	0.780387	0.817893	0.013605
675	N	0.7368	0.686347	0.333571
676	N	0.831272	0.805602	0.016682
677	O	0.717043	0.669624	0.365465
678	O	0.837337	0.821616	0.053465
679	O	0.721596	0.674813	0.296557
680	O	0.8421	0.826685	0.98457
681	C	0.711709	0.779856	0.340058
682	H	0.686365	0.761527	0.338144
683	C	0.810086	0.734728	0.009054
684	H	0.835416	0.752934	0.010781
685	C	0.750165	0.971038	0.340626
686	C	0.785259	0.995646	0.33755
687	C	0.79739	0.531334	0.33786
688	C	0.773922	0.543692	0.008492
689	C	0.738343	0.518925	0.011851
690	H	0.802753	0.987593	0.334587
691	C	0.72711	0.983411	0.011005
692	H	0.701456	0.966366	0.013601
693	N	0.833001	0.554323	0.333564
694	N	0.713747	0.529541	0.016679
695	O	0.849727	0.551292	0.365458
696	O	0.697736	0.519596	0.053463
697	O	0.844536	0.550655	0.296549
698	O	0.692663	0.519284	0.98457
699	C	0.739493	0.935723	0.340054
700	H	0.757822	0.928711	0.338137
701	C	0.784623	0.579229	0.009049
702	H	0.766416	0.586354	0.010776
703	C	0.548312	0.782999	0.34063
704	C	0.523704	0.793485	0.337556
705	C	0.988015	0.769926	0.33787
706	C	0.975657	0.734101	0.008494
707	C	0.000423	0.723289	0.011845
708	H	0.531758	0.819033	0.334607
709	C	0.535937	0.747569	0.011
710	H	0.552984	0.738961	0.013591
711	N	0.965026	0.782552	0.333586
712	N	0.989806	0.688076	0.016661
713	O	0.968058	0.802303	0.365485
714	O	0.999754	0.682004	0.05344
715	O	0.968692	0.797758	0.296576
716	O	6.6e-05	0.677255	0.984543
717	C	0.583625	0.80764	0.340061
718	H	0.590639	0.832984	0.338146
719	C	0.940119	0.709264	0.00905
720	H	0.932994	0.683933	0.010773
721	C	0.643318	0.820882	0.341195
722	N	0.663708	0.806678	0.341202
723	C	0.698468	0.826307	0.341195
724	N	0.712672	0.860903	0.341202
725	C	0.693041	0.876033	0.341195
726	N	0.658447	0.85564	0.341202
727	N	0.608926	0.799743	0.341202
728	N	0.706294	0.910423	0.341198
729	N	0.719607	0.813057	0.341198
730	C	0.879852	0.694832	0.341489
731	N	0.859238	0.708783	0.341479
732	C	0.824517	0.688891	0.341489
733	N	0.810565	0.654325	0.341479
734	C	0.830458	0.639497	0.341486
735	N	0.865023	0.66011	0.341476
736	N	0.914179	0.716235	0.341452
737	N	0.817534	0.605172	0.341449
738	N	0.803114	0.701814	0.341452
739	C	0.73635	0.769184	0.673961
740	C	0.725864	0.734091	0.670888
741	C	0.749423	0.721959	0.671199
742	C	0.785248	0.745428	0.341831
743	C	0.796061	0.781007	0.345189
744	H	0.700315	0.716596	0.667929
745	C	0.77178	0.792239	0.344336
746	H	0.780387	0.817893	0.346939
747	N	0.7368	0.686347	0.666904
748	N	0.831272	0.805602	0.350016
749	O	0.717043	0.669624	0.6988
750	O	0.837337	0.821616	0.3868
751	O	0.721596	0.674813	0.62989
752	O	0.8421	0.826685	0.317902
753	C	0.711709	0.779856	0.673393
754	H	0.686365	0.761527	0.671477
755	C	0.810086	0.734728	0.342386
756	H	0.835416	0.752934	0.344116
757	C	0.750165	0.971038	0.673958
758	C	0.785259	0.995646	0.670885
759	C	0.79739	0.531334	0.671196
760	C	0.773922	0.543692	0.341825
761	C	0.738343	0.518925	0.345186
762	H	0.802753	0.987593	0.667923
763	C	0.72711	0.983411	0.34434
764	H	0.701456	0.966366	0.346936
765	N	0.833001	0.554323	0.666897
766	N	0.713747	0.529541	0.350013
767	O	0.849727	0.551292	0.69879
768	O	0.697736	0.519596	0.386797
769	O	0.844536	0.550655	0.629883
770	O	0.692663	0.519284	0.317901
771	C	0.739493	0.935723	0.673389
772	H	0.757822	0.928711	0.67147
773	C	0.784623	0.579229	0.342383
774	H	0.766416	0.586354	0.344109
775	C	0.548312	0.782999	0.673965
776	C	0.523704	0.793485	0.670891
777	C	0.988015	0.769926	0.671203
778	C	0.975657	0.734101	0.341828
779	C	0.000423	0.723289	0.345179
780	H	0.531758	0.819033	0.66794
781	C	0.535937	0.747569	0.344333
782	H	0.552984	0.738961	0.346926
783	N	0.965026	0.782552	0.666921
784	N	0.989806	0.688076	0.349996
785	O	0.968058	0.802303	0.69882
786	O	0.999754	0.682004	0.386773
787	O	0.968692	0.797758	0.62991
788	O	6.6e-05	0.677255	0.317876
789	C	0.583625	0.80764	0.673393
790	H	0.590639	0.832984	0.67148
791	C	0.940119	0.709264	0.342383
792	H	0.932994	0.683933	0.344106
793	C	0.643318	0.820882	0.67453
794	N	0.663708	0.806678	0.674537
795	C	0.698468	0.826307	0.674527
796	N	0.712672	0.860903	0.674533
797	C	0.693041	0.876033	0.674527
798	N	0.658447	0.85564	0.674537
799	N	0.608926	0.799743	0.674533
800	N	0.706294	0.910423	0.674533
801	N	0.719607	0.813057	0.674533
802	C	0.879852	0.694832	0.674821
803	N	0.859238	0.708783	0.674814
804	C	0.824517	0.688891	0.674825
805	N	0.810565	0.654325	0.674811
806	C	0.830458	0.639497	0.674821
807	N	0.865023	0.66011	0.674811
808	N	0.914179	0.716235	0.674784
809	N	0.817534	0.605172	0.674781
810	N	0.803114	0.701814	0.674784
811	C	0.73635	0.769184	0.007297
812	C	0.725864	0.734091	0.004223
813	C	0.749423	0.721959	0.004531
814	C	0.785248	0.745428	0.675163
815	C	0.796061	0.781007	0.678521
816	H	0.700315	0.716596	0.001261
817	C	0.77178	0.792239	0.677668
818	H	0.780387	0.817893	0.680271
819	N	0.7368	0.686347	0.000239
820	N	0.831272	0.805602	0.683351
821	O	0.717043	0.669624	0.032133
822	O	0.837337	0.821616	0.720132
823	O	0.721596	0.674813	0.963225
824	O	0.8421	0.826685	0.651235
825	C	0.711709	0.779856	0.006728
826	H	0.686365	0.761527	0.004812
827	C	0.810086	0.734728	0.675722
828	H	0.835416	0.752934	0.677448
829	C	0.750165	0.971038	0.007293
830	C	0.785259	0.995646	0.004216
831	C	0.79739	0.531334	0.004528
832	C	0.773922	0.543692	0.67516
833	C	0.738343	0.518925	0.678518
834	H	0.802753	0.987593	0.001254
835	C	0.72711	0.983411	0.677671
836	H	0.701456	0.966366	0.680268
837	N	0.833001	0.554323	0.000232
838	N	0.713747	0.529541	0.683348
839	O	0.849727	0.551292	0.032123
840	O	0.697736	0.519596	0.720132
841	O	0.844536	0.550655	0.963218
842	O	0.692663	0.519284	0.651235
843	C	0.739493	0.935723	0.006724
844	H	0.757822	0.928711	0.004805
845	C	0.784623	0.579229	0.675715
846	H	0.766416	0.586354	0.677445
847	C	0.548312	0.782999	0.007297
848	C	0.523704	0.793485	0.004223
849	C	0.988015	0.769926	0.004538
850	C	0.975657	0.734101	0.675163
851	C	0.000423	0.723289	0.678511
852	H	0.531758	0.819033	0.001275
853	C	0.535937	0.747569	0.677668
854	H	0.552984	0.738961	0.680257
855	N	0.965026	0.782552	0.000252
856	N	0.989806	0.688076	0.683328
857	O	0.968058	0.802303	0.032152
858	O	0.999754	0.682004	0.720108
859	O	0.968692	0.797758	0.963245
860	O	6.6e-05	0.677255	0.651211
861	C	0.583625	0.80764	0.006728
862	H	0.590639	0.832984	0.004812
863	C	0.940119	0.709264	0.675718
864	H	0.932994	0.683933	0.677441
