data_C360H252N180O72_2018-02-15_10:32:30
#******************************************
#
# CIF file created by Zeo++
# Zeo++ is an open source package to
# analyze microporous materials
#
#*******************************************

_cell_length_a		43.42   
_cell_length_b		43.42   
_cell_length_c		30.0838   
_cell_angle_alpha		90   
_cell_angle_beta		90   
_cell_angle_gamma		120   

_symmetry_space_group_name_H-M		'P1'
_symmetry_Int_Tables_number		1
_symmetry_cell_setting		Monoclinic

loop_
_symmetry_equiv_pos_as_xyz
'+x,+y,+z'

loop_
_atom_site_label
_atom_site_type_symbol
_atom_site_fract_x
_atom_site_fract_y
_atom_site_fract_z
1	C	0.129328	0.322561	0.374713
2	N	0.15538	0.357231	0.041093
3	C	0.190437	0.36718	0.041379
4	N	0.199059	0.341132	0.041094
5	C	0.173953	0.306073	0.041383
6	N	0.139282	0.297457	0.041088
7	C	0.217188	0.403106	0.037802
8	C	0.183129	0.279325	0.037778
9	C	0.0934	0.313376	0.037781
10	O	0.155926	0.245228	0.037577
11	O	0.086501	0.340576	0.037589
12	O	0.251285	0.409999	0.037618
13	C	0.366784	0.176001	0.288862
14	N	0.341738	0.140948	0.955989
15	C	0.306402	0.129727	0.955564
16	N	0.296393	0.15477	0.955959
17	C	0.320513	0.190103	0.955507
18	N	0.355565	0.200117	0.955936
19	C	0.280841	0.093687	0.961627
20	C	0.310059	0.215688	0.96153
21	C	0.402816	0.186443	0.96159
22	O	0.336417	0.250111	0.96407
23	O	0.410868	0.160078	0.964173
24	O	0.246415	0.08561	0.96418
25	C	0.211369	0.236351	0.327181
26	C	0.226293	0.217122	0.308677
27	C	0.261958	0.226645	0.317054
28	C	0.281069	0.254772	0.014117
29	C	0.266195	0.273759	0.03456
30	C	0.23083	0.265311	0.023212
31	H	0.18682	0.230292	0.315922
32	H	0.211346	0.197128	0.286704
33	H	0.305611	0.260004	0.02441
34	N	0.286144	0.298363	0.066012
35	H	0.309681	0.302661	0.07415
36	H	0.276183	0.309139	0.085161
37	N	0.217593	0.286644	0.036549
38	H	0.235252	0.3109	0.044288
39	N	0.27528	0.206956	0.298405
40	H	0.257838	0.183757	0.286511
41	C	0.260188	0.474337	0.327257
42	C	0.279426	0.008497	0.308772
43	C	0.269903	0.034638	0.31716
44	C	0.241774	0.025617	0.014223
45	C	0.222781	0.491751	0.034647
46	C	0.231222	0.464832	0.02328
47	H	0.266243	0.455849	0.315985
48	H	0.29942	0.013547	0.286798
49	H	0.236544	0.044926	0.024527
50	N	0.198172	0.487083	0.066098
51	H	0.193875	0.506324	0.074251
52	H	0.187392	0.466343	0.08523
53	N	0.209875	0.430255	0.036588
54	H	0.185619	0.423657	0.044328
55	N	0.289588	0.067651	0.298513
56	H	0.312787	0.073413	0.286615
57	C	0.022182	0.28513	0.327201
58	C	0.488026	0.270206	0.308707
59	C	0.461881	0.234544	0.317101
60	C	0.4709	0.215439	0.014171
61	C	0.004765	0.230315	0.0346
62	C	0.031684	0.265675	0.023235
63	H	0.040673	0.309676	0.315929
64	H	0.482978	0.285149	0.286729
65	H	0.451591	0.190902	0.024475
66	N	0.009422	0.210369	0.066056
67	H	0.990187	0.18684	0.074203
68	H	0.030169	0.220334	0.085199
69	N	0.066257	0.278913	0.036561
70	H	0.072854	0.261253	0.0443
71	N	0.428869	0.221221	0.298454
72	H	0.423117	0.238662	0.286544
73	C	0.129328	0.322561	0.708045
74	N	0.15538	0.357231	0.374427
75	C	0.190437	0.36718	0.374713
76	N	0.199059	0.341132	0.374427
77	C	0.173953	0.306073	0.374716
78	N	0.139282	0.297457	0.374421
79	C	0.217188	0.403106	0.371136
80	C	0.183129	0.279325	0.371113
81	C	0.0934	0.313376	0.371116
82	O	0.155926	0.245228	0.37091
83	O	0.086501	0.340576	0.370924
84	O	0.251285	0.409999	0.37095
85	C	0.366784	0.176001	0.622195
86	N	0.341738	0.140948	0.289322
87	C	0.306402	0.129727	0.288898
88	N	0.296393	0.15477	0.289291
89	C	0.320513	0.190103	0.28884
90	N	0.355565	0.200117	0.289268
91	C	0.280841	0.093687	0.29496
92	C	0.310059	0.215688	0.294864
93	C	0.402816	0.186443	0.294922
94	O	0.336417	0.250111	0.297404
95	O	0.410868	0.160078	0.297507
96	O	0.246415	0.08561	0.297512
97	C	0.211369	0.236351	0.660515
98	C	0.226293	0.217122	0.64201
99	C	0.261958	0.226645	0.650386
100	C	0.281069	0.254772	0.347449
101	C	0.266195	0.273759	0.367892
102	C	0.23083	0.265311	0.356544
103	H	0.18682	0.230292	0.649256
104	H	0.211346	0.197128	0.620038
105	H	0.305611	0.260004	0.357744
106	N	0.286144	0.298363	0.399344
107	H	0.309681	0.302661	0.407482
108	H	0.276183	0.309139	0.418494
109	N	0.217593	0.286644	0.369883
110	H	0.235252	0.3109	0.377622
111	N	0.27528	0.206956	0.631738
112	H	0.257838	0.183757	0.619845
113	C	0.260188	0.474337	0.660591
114	C	0.279426	0.008497	0.642106
115	C	0.269903	0.034638	0.650493
116	C	0.241774	0.025617	0.347556
117	C	0.222781	0.491751	0.367982
118	C	0.231222	0.464832	0.356614
119	H	0.266243	0.455849	0.649319
120	H	0.29942	0.013547	0.620131
121	H	0.236544	0.044926	0.35786
122	N	0.198172	0.487083	0.399431
123	H	0.193875	0.506324	0.407585
124	H	0.187392	0.466343	0.418564
125	N	0.209875	0.430255	0.369923
126	H	0.185619	0.423657	0.377662
127	N	0.289588	0.067651	0.631848
128	H	0.312787	0.073413	0.619948
129	C	0.022182	0.28513	0.660535
130	C	0.488026	0.270206	0.64204
131	C	0.461881	0.234544	0.650433
132	C	0.4709	0.215439	0.347506
133	C	0.004765	0.230315	0.367935
134	C	0.031684	0.265675	0.356567
135	H	0.040673	0.309676	0.649263
136	H	0.482978	0.285149	0.620061
137	H	0.451591	0.190902	0.357807
138	N	0.009422	0.210369	0.399391
139	H	0.990187	0.18684	0.407538
140	H	0.030169	0.220334	0.418534
141	N	0.066257	0.278913	0.369893
142	H	0.072854	0.261253	0.377632
143	N	0.428869	0.221221	0.631788
144	H	0.423117	0.238662	0.619878
145	C	0.129328	0.322561	0.041379
146	N	0.15538	0.357231	0.707759
147	C	0.190437	0.36718	0.708045
148	N	0.199059	0.341132	0.707763
149	C	0.173953	0.306073	0.708052
150	N	0.139282	0.297457	0.707756
151	C	0.217188	0.403106	0.704468
152	C	0.183129	0.279325	0.704445
153	C	0.0934	0.313376	0.704449
154	O	0.155926	0.245228	0.704242
155	O	0.086501	0.340576	0.704256
156	O	0.251285	0.409999	0.704286
157	C	0.366784	0.176001	0.95553
158	N	0.341738	0.140948	0.622654
159	C	0.306402	0.129727	0.622232
160	N	0.296393	0.15477	0.622624
161	C	0.320513	0.190103	0.622175
162	N	0.355565	0.200117	0.622601
163	C	0.280841	0.093687	0.628295
164	C	0.310059	0.215688	0.628198
165	C	0.402816	0.186443	0.628255
166	O	0.336417	0.250111	0.630738
167	O	0.410868	0.160078	0.630841
168	O	0.246415	0.08561	0.630844
169	C	0.211369	0.236351	0.99385
170	C	0.226293	0.217122	0.975345
171	C	0.261958	0.226645	0.983722
172	C	0.281069	0.254772	0.680785
173	C	0.266195	0.273759	0.701228
174	C	0.23083	0.265311	0.689879
175	H	0.18682	0.230292	0.982588
176	H	0.211346	0.197128	0.95337
177	H	0.305611	0.260004	0.691076
178	N	0.286144	0.298363	0.73268
179	H	0.309681	0.302661	0.740817
180	H	0.276183	0.309139	0.751829
181	N	0.217593	0.286644	0.703215
182	H	0.235252	0.3109	0.710954
183	N	0.27528	0.206956	0.96507
184	H	0.257838	0.183757	0.953177
185	C	0.260188	0.474337	0.993923
186	C	0.279426	0.008497	0.975438
187	C	0.269903	0.034638	0.983828
188	C	0.241774	0.025617	0.680891
189	C	0.222781	0.491751	0.701314
190	C	0.231222	0.464832	0.689946
191	H	0.266243	0.455849	0.982651
192	H	0.29942	0.013547	0.953466
193	H	0.236544	0.044926	0.691196
194	N	0.198172	0.487083	0.732766
195	H	0.193875	0.506324	0.740917
196	H	0.187392	0.466343	0.751896
197	N	0.209875	0.430255	0.703255
198	H	0.185619	0.423657	0.710994
199	N	0.289588	0.067651	0.96518
200	H	0.312787	0.073413	0.953283
201	C	0.022182	0.28513	0.993867
202	C	0.488026	0.270206	0.975375
203	C	0.461881	0.234544	0.983768
204	C	0.4709	0.215439	0.680838
205	C	0.004765	0.230315	0.701267
206	C	0.031684	0.265675	0.689903
207	H	0.040673	0.309676	0.982595
208	H	0.482978	0.285149	0.953396
209	H	0.451591	0.190902	0.691142
210	N	0.009422	0.210369	0.732723
211	H	0.990187	0.18684	0.74087
212	H	0.030169	0.220334	0.751866
213	N	0.066257	0.278913	0.703229
214	H	0.072854	0.261253	0.710967
215	N	0.428869	0.221221	0.96512
216	H	0.423117	0.238662	0.95321
217	C	0.129328	0.822561	0.374713
218	N	0.15538	0.857232	0.041093
219	C	0.190437	0.86718	0.041379
220	N	0.199059	0.841132	0.041094
221	C	0.173953	0.806073	0.041383
222	N	0.139281	0.797457	0.041088
223	C	0.21719	0.903108	0.037802
224	C	0.183129	0.779325	0.037778
225	C	0.093403	0.813378	0.037781
226	O	0.155925	0.745227	0.037577
227	O	0.086502	0.840576	0.037589
228	O	0.251285	0.909999	0.037618
229	C	0.366785	0.676	0.288862
230	N	0.341738	0.640947	0.955989
231	C	0.306401	0.629727	0.955564
232	N	0.296394	0.654771	0.955959
233	C	0.320513	0.690103	0.955507
234	N	0.355566	0.700118	0.955936
235	C	0.280841	0.593687	0.961627
236	C	0.31006	0.715689	0.96153
237	C	0.402817	0.686444	0.96159
238	O	0.336417	0.750112	0.96407
239	O	0.410869	0.660079	0.964173
240	O	0.246416	0.585611	0.96418
241	C	0.21137	0.736352	0.327181
242	C	0.226293	0.717122	0.308677
243	C	0.261959	0.726645	0.317054
244	C	0.28107	0.754774	0.014117
245	C	0.266195	0.773759	0.03456
246	C	0.230831	0.765313	0.023212
247	H	0.18682	0.730291	0.315922
248	H	0.211346	0.697129	0.286704
249	H	0.305612	0.760005	0.02441
250	N	0.286144	0.798364	0.066012
251	H	0.309681	0.802661	0.07415
252	H	0.276183	0.809139	0.085161
253	N	0.217593	0.786644	0.036549
254	H	0.235252	0.8109	0.044288
255	N	0.27528	0.706955	0.298405
256	H	0.257839	0.683758	0.286511
257	C	0.260188	0.974337	0.327257
258	C	0.279425	0.508497	0.308772
259	C	0.269903	0.534638	0.31716
260	C	0.241775	0.525618	0.014223
261	C	0.222782	0.991751	0.034647
262	C	0.231223	0.964833	0.02328
263	H	0.266243	0.955849	0.315985
264	H	0.29942	0.513547	0.286798
265	H	0.236545	0.544928	0.024528
266	N	0.198171	0.987084	0.066098
267	H	0.193875	0.006324	0.074251
268	H	0.187393	0.966343	0.08523
269	N	0.209876	0.930258	0.036588
270	H	0.18562	0.923657	0.044328
271	N	0.289588	0.567652	0.298513
272	H	0.312786	0.573412	0.286615
273	C	0.022183	0.785131	0.327201
274	C	0.488026	0.770206	0.308707
275	C	0.461881	0.734544	0.317101
276	C	0.4709	0.715439	0.014171
277	C	0.004766	0.730315	0.0346
278	C	0.031683	0.765675	0.023235
279	H	0.040672	0.809677	0.315929
280	H	0.482978	0.785149	0.286729
281	H	0.451591	0.690903	0.024475
282	N	0.009423	0.71037	0.066056
283	H	0.990186	0.68684	0.074203
284	H	0.03017	0.720335	0.085199
285	N	0.066257	0.778913	0.036561
286	H	0.072854	0.761255	0.0443
287	N	0.428869	0.72122	0.298454
288	H	0.423117	0.738663	0.286544
289	C	0.129328	0.822561	0.708045
290	N	0.15538	0.857232	0.374427
291	C	0.190437	0.86718	0.374713
292	N	0.199059	0.841132	0.374427
293	C	0.173953	0.806073	0.374716
294	N	0.139281	0.797457	0.374421
295	C	0.21719	0.903108	0.371136
296	C	0.183129	0.779325	0.371113
297	C	0.093403	0.813378	0.371116
298	O	0.155925	0.745227	0.37091
299	O	0.086502	0.840576	0.370924
300	O	0.251285	0.909999	0.37095
301	C	0.366785	0.676	0.622195
302	N	0.341738	0.640947	0.289322
303	C	0.306401	0.629727	0.288898
304	N	0.296394	0.654771	0.289291
305	C	0.320513	0.690103	0.28884
306	N	0.355566	0.700118	0.289268
307	C	0.280841	0.593687	0.29496
308	C	0.31006	0.715689	0.294864
309	C	0.402817	0.686444	0.294923
310	O	0.336417	0.750112	0.297404
311	O	0.410869	0.660079	0.297507
312	O	0.246416	0.585611	0.297512
313	C	0.21137	0.736352	0.660515
314	C	0.226293	0.717122	0.64201
315	C	0.261959	0.726645	0.650386
316	C	0.28107	0.754774	0.347449
317	C	0.266195	0.773759	0.367892
318	C	0.230831	0.765313	0.356544
319	H	0.18682	0.730291	0.649256
320	H	0.211346	0.697129	0.620038
321	H	0.305612	0.760005	0.357744
322	N	0.286144	0.798364	0.399344
323	H	0.309681	0.802661	0.407482
324	H	0.276183	0.809139	0.418494
325	N	0.217593	0.786644	0.369883
326	H	0.235252	0.8109	0.377622
327	N	0.27528	0.706955	0.631738
328	H	0.257839	0.683758	0.619845
329	C	0.260188	0.974337	0.660591
330	C	0.279425	0.508497	0.642106
331	C	0.269903	0.534638	0.650493
332	C	0.241775	0.525618	0.347556
333	C	0.222782	0.991751	0.367982
334	C	0.231223	0.964833	0.356614
335	H	0.266243	0.955849	0.649319
336	H	0.29942	0.513547	0.620131
337	H	0.236545	0.544928	0.35786
338	N	0.198171	0.987084	0.399431
339	H	0.193875	0.006324	0.407585
340	H	0.187393	0.966343	0.418564
341	N	0.209876	0.930258	0.369923
342	H	0.18562	0.923657	0.377662
343	N	0.289588	0.567652	0.631848
344	H	0.312786	0.573412	0.619948
345	C	0.022183	0.785131	0.660535
346	C	0.488026	0.770206	0.64204
347	C	0.461881	0.734544	0.650433
348	C	0.4709	0.715439	0.347506
349	C	0.004766	0.730315	0.367935
350	C	0.031683	0.765675	0.356567
351	H	0.040672	0.809677	0.649263
352	H	0.482978	0.785149	0.620061
353	H	0.451591	0.690903	0.357807
354	N	0.009423	0.71037	0.399391
355	H	0.990186	0.68684	0.407538
356	H	0.03017	0.720335	0.418534
357	N	0.066257	0.778913	0.369893
358	H	0.072854	0.761255	0.377632
359	N	0.428869	0.72122	0.631788
360	H	0.423117	0.738663	0.619878
361	C	0.129328	0.822561	0.041379
362	N	0.15538	0.857232	0.707759
363	C	0.190437	0.86718	0.708045
364	N	0.199059	0.841132	0.707763
365	C	0.173953	0.806073	0.708052
366	N	0.139281	0.797457	0.707756
367	C	0.21719	0.903108	0.704468
368	C	0.183129	0.779325	0.704445
369	C	0.093403	0.813378	0.704449
370	O	0.155925	0.745227	0.704242
371	O	0.086502	0.840576	0.704256
372	O	0.251285	0.909999	0.704286
373	C	0.366785	0.676	0.95553
374	N	0.341738	0.640947	0.622654
375	C	0.306401	0.629727	0.622232
376	N	0.296394	0.654771	0.622624
377	C	0.320513	0.690103	0.622175
378	N	0.355566	0.700118	0.622601
379	C	0.280841	0.593687	0.628295
380	C	0.31006	0.715689	0.628198
381	C	0.402817	0.686444	0.628255
382	O	0.336417	0.750112	0.630738
383	O	0.410869	0.660079	0.630841
384	O	0.246416	0.585611	0.630844
385	C	0.21137	0.736352	0.99385
386	C	0.226293	0.717122	0.975345
387	C	0.261959	0.726645	0.983722
388	C	0.28107	0.754774	0.680785
389	C	0.266195	0.773759	0.701228
390	C	0.230831	0.765313	0.689879
391	H	0.18682	0.730291	0.982588
392	H	0.211346	0.697129	0.95337
393	H	0.305612	0.760005	0.691076
394	N	0.286144	0.798364	0.73268
395	H	0.309681	0.802661	0.740817
396	H	0.276183	0.809139	0.751829
397	N	0.217593	0.786644	0.703215
398	H	0.235252	0.8109	0.710954
399	N	0.27528	0.706955	0.96507
400	H	0.257839	0.683758	0.953177
401	C	0.260188	0.974337	0.993923
402	C	0.279425	0.508497	0.975438
403	C	0.269903	0.534638	0.983828
404	C	0.241775	0.525618	0.680891
405	C	0.222782	0.991751	0.701314
406	C	0.231223	0.964833	0.689946
407	H	0.266243	0.955849	0.982651
408	H	0.29942	0.513547	0.953466
409	H	0.236545	0.544928	0.691196
410	N	0.198171	0.987084	0.732766
411	H	0.193875	0.006324	0.740917
412	H	0.187393	0.966343	0.751896
413	N	0.209876	0.930258	0.703255
414	H	0.18562	0.923657	0.710994
415	N	0.289588	0.567652	0.96518
416	H	0.312786	0.573412	0.953283
417	C	0.022183	0.785131	0.993867
418	C	0.488026	0.770206	0.975375
419	C	0.461881	0.734544	0.983768
420	C	0.4709	0.715439	0.680838
421	C	0.004766	0.730315	0.701267
422	C	0.031683	0.765675	0.689903
423	H	0.040672	0.809677	0.982595
424	H	0.482978	0.785149	0.953396
425	H	0.451591	0.690903	0.691142
426	N	0.009423	0.71037	0.732723
427	H	0.990186	0.68684	0.74087
428	H	0.03017	0.720335	0.751866
429	N	0.066257	0.778913	0.703229
430	H	0.072854	0.761255	0.710967
431	N	0.428869	0.72122	0.96512
432	H	0.423117	0.738663	0.95321
433	C	0.629328	0.322561	0.374713
434	N	0.65538	0.357231	0.041093
435	C	0.690437	0.36718	0.041379
436	N	0.69906	0.341132	0.041094
437	C	0.673953	0.306073	0.041383
438	N	0.639281	0.297457	0.041088
439	C	0.717188	0.403106	0.037802
440	C	0.683129	0.279325	0.037778
441	C	0.593401	0.313376	0.037781
442	O	0.655926	0.245228	0.037577
443	O	0.586502	0.340576	0.037589
444	O	0.751285	0.409999	0.037618
445	C	0.866784	0.176001	0.288862
446	N	0.841738	0.140948	0.955989
447	C	0.806402	0.129727	0.955564
448	N	0.796392	0.15477	0.955959
449	C	0.820512	0.190103	0.955507
450	N	0.855565	0.200117	0.955936
451	C	0.780841	0.093687	0.961627
452	C	0.810059	0.215688	0.96153
453	C	0.902816	0.186443	0.96159
454	O	0.836416	0.250111	0.96407
455	O	0.910868	0.160078	0.964173
456	O	0.746416	0.08561	0.96418
457	C	0.71137	0.236351	0.327181
458	C	0.726293	0.217122	0.308677
459	C	0.761959	0.226645	0.317054
460	C	0.781069	0.254772	0.014117
461	C	0.766195	0.273759	0.03456
462	C	0.730829	0.265311	0.023212
463	H	0.68682	0.230292	0.315922
464	H	0.711346	0.197128	0.286704
465	H	0.80561	0.260004	0.02441
466	N	0.786144	0.298363	0.066012
467	H	0.809682	0.302661	0.07415
468	H	0.776184	0.309139	0.085161
469	N	0.717594	0.286644	0.036549
470	H	0.735252	0.3109	0.044288
471	N	0.775279	0.206956	0.298405
472	H	0.757839	0.183757	0.286511
473	C	0.760188	0.474337	0.327257
474	C	0.779426	0.008497	0.308772
475	C	0.769903	0.034638	0.31716
476	C	0.741774	0.025617	0.014223
477	C	0.722782	0.491751	0.034647
478	C	0.731223	0.464832	0.02328
479	H	0.766243	0.455849	0.315985
480	H	0.79942	0.013547	0.286798
481	H	0.736544	0.044926	0.024527
482	N	0.698171	0.487083	0.066098
483	H	0.693876	0.506324	0.074251
484	H	0.687393	0.466343	0.08523
485	N	0.709874	0.430255	0.036588
486	H	0.68562	0.423657	0.044328
487	N	0.789588	0.067651	0.298513
488	H	0.812787	0.073413	0.286615
489	C	0.522183	0.28513	0.327201
490	C	0.988026	0.270206	0.308707
491	C	0.961881	0.234544	0.317101
492	C	0.9709	0.215439	0.014171
493	C	0.504766	0.230315	0.0346
494	C	0.531684	0.265675	0.023235
495	H	0.540672	0.309676	0.315929
496	H	0.982978	0.285149	0.286729
497	H	0.951591	0.190902	0.024475
498	N	0.509422	0.210369	0.066056
499	H	0.490187	0.18684	0.074203
500	H	0.53017	0.220334	0.085199
501	N	0.566257	0.278913	0.036561
502	H	0.572854	0.261253	0.0443
503	N	0.928869	0.221221	0.298454
504	H	0.923117	0.238662	0.286544
505	C	0.629328	0.322561	0.708045
506	N	0.65538	0.357231	0.374427
507	C	0.690437	0.36718	0.374713
508	N	0.69906	0.341132	0.374427
509	C	0.673953	0.306073	0.374716
510	N	0.639281	0.297457	0.374421
511	C	0.717188	0.403106	0.371136
512	C	0.683129	0.279325	0.371113
513	C	0.593401	0.313376	0.371116
514	O	0.655926	0.245228	0.37091
515	O	0.586502	0.340576	0.370924
516	O	0.751285	0.409999	0.37095
517	C	0.866784	0.176001	0.622195
518	N	0.841738	0.140948	0.289322
519	C	0.806402	0.129727	0.288898
520	N	0.796392	0.15477	0.289291
521	C	0.820512	0.190103	0.28884
522	N	0.855565	0.200117	0.289268
523	C	0.780841	0.093687	0.29496
524	C	0.810059	0.215688	0.294864
525	C	0.902816	0.186443	0.294922
526	O	0.836416	0.250111	0.297404
527	O	0.910868	0.160078	0.297507
528	O	0.746416	0.08561	0.297512
529	C	0.71137	0.236351	0.660515
530	C	0.726293	0.217122	0.64201
531	C	0.761959	0.226645	0.650386
532	C	0.781069	0.254772	0.347449
533	C	0.766195	0.273759	0.367892
534	C	0.730829	0.265311	0.356544
535	H	0.68682	0.230292	0.649256
536	H	0.711346	0.197128	0.620038
537	H	0.80561	0.260004	0.357744
538	N	0.786144	0.298363	0.399344
539	H	0.809682	0.302661	0.407482
540	H	0.776184	0.309139	0.418494
541	N	0.717594	0.286644	0.369883
542	H	0.735252	0.3109	0.377622
543	N	0.775279	0.206956	0.631738
544	H	0.757839	0.183757	0.619845
545	C	0.760188	0.474337	0.660591
546	C	0.779426	0.008497	0.642106
547	C	0.769903	0.034638	0.650493
548	C	0.741774	0.025617	0.347556
549	C	0.722782	0.491751	0.367982
550	C	0.731223	0.464832	0.356614
551	H	0.766243	0.455849	0.649319
552	H	0.79942	0.013547	0.620131
553	H	0.736544	0.044926	0.35786
554	N	0.698171	0.487083	0.399431
555	H	0.693876	0.506324	0.407585
556	H	0.687393	0.466343	0.418564
557	N	0.709874	0.430255	0.369923
558	H	0.68562	0.423657	0.377662
559	N	0.789588	0.067651	0.631848
560	H	0.812787	0.073413	0.619948
561	C	0.522183	0.28513	0.660535
562	C	0.988026	0.270206	0.64204
563	C	0.961881	0.234544	0.650433
564	C	0.9709	0.215439	0.347506
565	C	0.504766	0.230315	0.367935
566	C	0.531684	0.265675	0.356567
567	H	0.540672	0.309676	0.649263
568	H	0.982978	0.285149	0.620061
569	H	0.951591	0.190902	0.357807
570	N	0.509422	0.210369	0.399391
571	H	0.490187	0.18684	0.407538
572	H	0.53017	0.220334	0.418534
573	N	0.566257	0.278913	0.369893
574	H	0.572854	0.261253	0.377632
575	N	0.928869	0.221221	0.631788
576	H	0.923117	0.238662	0.619878
577	C	0.629328	0.322561	0.041379
578	N	0.65538	0.357231	0.707759
579	C	0.690437	0.36718	0.708045
580	N	0.69906	0.341132	0.707763
581	C	0.673953	0.306073	0.708052
582	N	0.639281	0.297457	0.707756
583	C	0.717188	0.403106	0.704468
584	C	0.683129	0.279325	0.704445
585	C	0.593401	0.313376	0.704449
586	O	0.655926	0.245228	0.704242
587	O	0.586502	0.340576	0.704256
588	O	0.751285	0.409999	0.704286
589	C	0.866784	0.176001	0.95553
590	N	0.841738	0.140948	0.622654
591	C	0.806402	0.129727	0.622232
592	N	0.796392	0.15477	0.622624
593	C	0.820512	0.190103	0.622175
594	N	0.855565	0.200117	0.622601
595	C	0.780841	0.093687	0.628295
596	C	0.810059	0.215688	0.628198
597	C	0.902816	0.186443	0.628255
598	O	0.836416	0.250111	0.630738
599	O	0.910868	0.160078	0.630841
600	O	0.746416	0.08561	0.630844
601	C	0.71137	0.236351	0.99385
602	C	0.726293	0.217122	0.975345
603	C	0.761959	0.226645	0.983722
604	C	0.781069	0.254772	0.680785
605	C	0.766195	0.273759	0.701228
606	C	0.730829	0.265311	0.689879
607	H	0.68682	0.230292	0.982588
608	H	0.711346	0.197128	0.95337
609	H	0.80561	0.260004	0.691076
610	N	0.786144	0.298363	0.73268
611	H	0.809682	0.302661	0.740817
612	H	0.776184	0.309139	0.751829
613	N	0.717594	0.286644	0.703215
614	H	0.735252	0.3109	0.710954
615	N	0.775279	0.206956	0.96507
616	H	0.757839	0.183757	0.953177
617	C	0.760188	0.474337	0.993923
618	C	0.779426	0.008497	0.975438
619	C	0.769903	0.034638	0.983828
620	C	0.741774	0.025617	0.680891
621	C	0.722782	0.491751	0.701314
622	C	0.731223	0.464832	0.689946
623	H	0.766243	0.455849	0.982651
624	H	0.79942	0.013547	0.953466
625	H	0.736544	0.044926	0.691196
626	N	0.698171	0.487083	0.732766
627	H	0.693876	0.506324	0.740917
628	H	0.687393	0.466343	0.751896
629	N	0.709874	0.430255	0.703255
630	H	0.68562	0.423657	0.710994
631	N	0.789588	0.067651	0.96518
632	H	0.812787	0.073413	0.953283
633	C	0.522183	0.28513	0.993867
634	C	0.988026	0.270206	0.975375
635	C	0.961881	0.234544	0.983768
636	C	0.9709	0.215439	0.680838
637	C	0.504766	0.230315	0.701267
638	C	0.531684	0.265675	0.689903
639	H	0.540672	0.309676	0.982595
640	H	0.982978	0.285149	0.953396
641	H	0.951591	0.190902	0.691142
642	N	0.509422	0.210369	0.732723
643	H	0.490187	0.18684	0.74087
644	H	0.53017	0.220334	0.751866
645	N	0.566257	0.278913	0.703229
646	H	0.572854	0.261253	0.710967
647	N	0.928869	0.221221	0.96512
648	H	0.923117	0.238662	0.95321
649	C	0.629328	0.822561	0.374713
650	N	0.65538	0.857232	0.041093
651	C	0.690437	0.86718	0.041379
652	N	0.69906	0.841132	0.041094
653	C	0.673953	0.806073	0.041383
654	N	0.639281	0.797457	0.041088
655	C	0.71719	0.903108	0.037802
656	C	0.683129	0.779325	0.037778
657	C	0.593402	0.813378	0.037781
658	O	0.655925	0.745227	0.037577
659	O	0.586501	0.840576	0.037589
660	O	0.751285	0.909999	0.037618
661	C	0.866784	0.676	0.288862
662	N	0.841738	0.640947	0.955989
663	C	0.806402	0.629727	0.955564
664	N	0.796393	0.654771	0.955959
665	C	0.820512	0.690103	0.955507
666	N	0.855566	0.700118	0.955936
667	C	0.780842	0.593687	0.961627
668	C	0.81006	0.715689	0.96153
669	C	0.902817	0.686444	0.96159
670	O	0.836417	0.750112	0.96407
671	O	0.910868	0.660079	0.964173
672	O	0.746417	0.585611	0.96418
673	C	0.71137	0.736352	0.327181
674	C	0.726293	0.717122	0.308677
675	C	0.761959	0.726645	0.317054
676	C	0.781069	0.754774	0.014117
677	C	0.766195	0.773759	0.03456
678	C	0.73083	0.765313	0.023212
679	H	0.68682	0.730291	0.315922
680	H	0.711347	0.697129	0.286704
681	H	0.80561	0.760005	0.02441
682	N	0.786144	0.798364	0.066012
683	H	0.809682	0.802661	0.07415
684	H	0.776184	0.809139	0.085161
685	N	0.717594	0.786644	0.036549
686	H	0.735252	0.8109	0.044288
687	N	0.775279	0.706955	0.298405
688	H	0.757839	0.683758	0.286511
689	C	0.760188	0.974337	0.327257
690	C	0.779426	0.508497	0.308772
691	C	0.769903	0.534638	0.31716
692	C	0.741775	0.525618	0.014223
693	C	0.722781	0.991751	0.034647
694	C	0.731223	0.964833	0.02328
695	H	0.766243	0.955849	0.315985
696	H	0.79942	0.513547	0.286798
697	H	0.736545	0.544928	0.024528
698	N	0.698172	0.987084	0.066098
699	H	0.693874	0.006324	0.074251
700	H	0.687392	0.966343	0.08523
701	N	0.709876	0.930258	0.036588
702	H	0.685619	0.923657	0.044328
703	N	0.789588	0.567652	0.298513
704	H	0.812786	0.573412	0.286615
705	C	0.522182	0.785131	0.327201
706	C	0.988026	0.770206	0.308707
707	C	0.96188	0.734544	0.317101
708	C	0.9709	0.715439	0.014171
709	C	0.504766	0.730315	0.0346
710	C	0.531684	0.765675	0.023235
711	H	0.540673	0.809677	0.315929
712	H	0.982978	0.785149	0.286729
713	H	0.951592	0.690903	0.024475
714	N	0.509423	0.71037	0.066056
715	H	0.490187	0.68684	0.074203
716	H	0.530169	0.720335	0.085199
717	N	0.566257	0.778913	0.036561
718	H	0.572855	0.761255	0.0443
719	N	0.928869	0.72122	0.298454
720	H	0.923118	0.738663	0.286544
721	C	0.629328	0.822561	0.708045
722	N	0.65538	0.857232	0.374427
723	C	0.690437	0.86718	0.374713
724	N	0.69906	0.841132	0.374427
725	C	0.673953	0.806073	0.374716
726	N	0.639281	0.797457	0.374421
727	C	0.71719	0.903108	0.371136
728	C	0.683129	0.779325	0.371113
729	C	0.593402	0.813378	0.371116
730	O	0.655925	0.745227	0.37091
731	O	0.586501	0.840576	0.370924
732	O	0.751285	0.909999	0.37095
733	C	0.866784	0.676	0.622195
734	N	0.841738	0.640947	0.289322
735	C	0.806402	0.629727	0.288898
736	N	0.796393	0.654771	0.289291
737	C	0.820512	0.690103	0.28884
738	N	0.855566	0.700118	0.289268
739	C	0.780842	0.593687	0.29496
740	C	0.81006	0.715689	0.294864
741	C	0.902817	0.686444	0.294923
742	O	0.836417	0.750112	0.297404
743	O	0.910868	0.660079	0.297507
744	O	0.746417	0.585611	0.297512
745	C	0.71137	0.736352	0.660515
746	C	0.726293	0.717122	0.64201
747	C	0.761959	0.726645	0.650386
748	C	0.781069	0.754774	0.347449
749	C	0.766195	0.773759	0.367892
750	C	0.73083	0.765313	0.356544
751	H	0.68682	0.730291	0.649256
752	H	0.711347	0.697129	0.620038
753	H	0.80561	0.760005	0.357744
754	N	0.786144	0.798364	0.399344
755	H	0.809682	0.802661	0.407482
756	H	0.776184	0.809139	0.418494
757	N	0.717594	0.786644	0.369883
758	H	0.735252	0.8109	0.377622
759	N	0.775279	0.706955	0.631738
760	H	0.757839	0.683758	0.619845
761	C	0.760188	0.974337	0.660591
762	C	0.779426	0.508497	0.642106
763	C	0.769903	0.534638	0.650493
764	C	0.741775	0.525618	0.347556
765	C	0.722781	0.991751	0.367982
766	C	0.731223	0.964833	0.356614
767	H	0.766243	0.955849	0.649319
768	H	0.79942	0.513547	0.620131
769	H	0.736545	0.544928	0.35786
770	N	0.698172	0.987084	0.399431
771	H	0.693874	0.006324	0.407585
772	H	0.687392	0.966343	0.418564
773	N	0.709876	0.930258	0.369923
774	H	0.685619	0.923657	0.377662
775	N	0.789588	0.567652	0.631848
776	H	0.812786	0.573412	0.619948
777	C	0.522182	0.785131	0.660535
778	C	0.988026	0.770206	0.64204
779	C	0.96188	0.734544	0.650433
780	C	0.9709	0.715439	0.347506
781	C	0.504766	0.730315	0.367935
782	C	0.531684	0.765675	0.356567
783	H	0.540673	0.809677	0.649263
784	H	0.982978	0.785149	0.620061
785	H	0.951592	0.690903	0.357807
786	N	0.509423	0.71037	0.399391
787	H	0.490187	0.68684	0.407538
788	H	0.530169	0.720335	0.418534
789	N	0.566257	0.778913	0.369893
790	H	0.572855	0.761255	0.377632
791	N	0.928869	0.72122	0.631788
792	H	0.923118	0.738663	0.619878
793	C	0.629328	0.822561	0.041379
794	N	0.65538	0.857232	0.707759
795	C	0.690437	0.86718	0.708045
796	N	0.69906	0.841132	0.707763
797	C	0.673953	0.806073	0.708052
798	N	0.639281	0.797457	0.707756
799	C	0.71719	0.903108	0.704468
800	C	0.683129	0.779325	0.704445
801	C	0.593402	0.813378	0.704449
802	O	0.655925	0.745227	0.704242
803	O	0.586501	0.840576	0.704256
804	O	0.751285	0.909999	0.704286
805	C	0.866784	0.676	0.95553
806	N	0.841738	0.640947	0.622654
807	C	0.806402	0.629727	0.622232
808	N	0.796393	0.654771	0.622624
809	C	0.820512	0.690103	0.622175
810	N	0.855566	0.700118	0.622601
811	C	0.780842	0.593687	0.628295
812	C	0.81006	0.715689	0.628198
813	C	0.902817	0.686444	0.628255
814	O	0.836417	0.750112	0.630738
815	O	0.910868	0.660079	0.630841
816	O	0.746417	0.585611	0.630844
817	C	0.71137	0.736352	0.99385
818	C	0.726293	0.717122	0.975345
819	C	0.761959	0.726645	0.983722
820	C	0.781069	0.754774	0.680785
821	C	0.766195	0.773759	0.701228
822	C	0.73083	0.765313	0.689879
823	H	0.68682	0.730291	0.982588
824	H	0.711347	0.697129	0.95337
825	H	0.80561	0.760005	0.691076
826	N	0.786144	0.798364	0.73268
827	H	0.809682	0.802661	0.740817
828	H	0.776184	0.809139	0.751829
829	N	0.717594	0.786644	0.703215
830	H	0.735252	0.8109	0.710954
831	N	0.775279	0.706955	0.96507
832	H	0.757839	0.683758	0.953177
833	C	0.760188	0.974337	0.993923
834	C	0.779426	0.508497	0.975438
835	C	0.769903	0.534638	0.983828
836	C	0.741775	0.525618	0.680891
837	C	0.722781	0.991751	0.701314
838	C	0.731223	0.964833	0.689946
839	H	0.766243	0.955849	0.982651
840	H	0.79942	0.513547	0.953466
841	H	0.736545	0.544928	0.691196
842	N	0.698172	0.987084	0.732766
843	H	0.693874	0.006324	0.740917
844	H	0.687392	0.966343	0.751896
845	N	0.709876	0.930258	0.703255
846	H	0.685619	0.923657	0.710994
847	N	0.789588	0.567652	0.96518
848	H	0.812786	0.573412	0.953283
849	C	0.522182	0.785131	0.993867
850	C	0.988026	0.770206	0.975375
851	C	0.96188	0.734544	0.983768
852	C	0.9709	0.715439	0.680838
853	C	0.504766	0.730315	0.701267
854	C	0.531684	0.765675	0.689903
855	H	0.540673	0.809677	0.982595
856	H	0.982978	0.785149	0.953396
857	H	0.951592	0.690903	0.691142
858	N	0.509423	0.71037	0.732723
859	H	0.490187	0.68684	0.74087
860	H	0.530169	0.720335	0.751866
861	N	0.566257	0.778913	0.703229
862	H	0.572855	0.761255	0.710967
863	N	0.928869	0.72122	0.96512
864	H	0.923118	0.738663	0.95321
