data_C324H216N216O72_2018-02-15_10:32:37
#******************************************
#
# CIF file created by Zeo++
# Zeo++ is an open source package to
# analyze microporous materials
#
#*******************************************

_cell_length_a		43.2343   
_cell_length_b		43.2343   
_cell_length_c		30.1068   
_cell_angle_alpha		90   
_cell_angle_beta		90   
_cell_angle_gamma		120   

_symmetry_space_group_name_H-M		'P1'
_symmetry_Int_Tables_number		1
_symmetry_cell_setting		Monoclinic

loop_
_symmetry_equiv_pos_as_xyz
'+x,+y,+z'

loop_
_atom_site_label
_atom_site_type_symbol
_atom_site_fract_x
_atom_site_fract_y
_atom_site_fract_z
1	C	0.127678	0.317547	0.3803
2	N	0.150272	0.353395	0.046672
3	C	0.186319	0.367884	0.046967
4	N	0.199576	0.345294	0.046665
5	C	0.17802	0.309246	0.046962
6	N	0.142172	0.295994	0.046658
7	C	0.209408	0.404944	0.042943
8	C	0.191993	0.28616	0.042899
9	C	0.090617	0.303566	0.04292
10	O	0.168013	0.250888	0.038082
11	O	0.079321	0.327544	0.038115
12	O	0.244683	0.416238	0.038141
13	C	0.365285	0.171769	0.301394
14	N	0.337394	0.137757	0.968439
15	C	0.302924	0.130285	0.968094
16	N	0.296801	0.158173	0.96841
17	C	0.323802	0.19264	0.968041
18	N	0.357813	0.198767	0.96839
19	C	0.274294	0.095222	0.973455
20	C	0.317387	0.221285	0.973372
21	C	0.400338	0.178174	0.973428
22	O	0.34658	0.25439	0.9739
23	O	0.404233	0.148971	0.974016
24	O	0.241186	0.091304	0.973986
25	C	0.273906	0.239486	0.328691
26	C	0.296202	0.273057	0.015399
27	C	0.281965	0.293817	0.032482
28	C	0.244422	0.279937	0.029312
29	N	0.224931	0.247206	0.343597
30	H	0.32274	0.282108	0.019462
31	N	0.23845	0.228393	0.328116
32	C	0.306266	0.328572	0.054318
33	H	0.333933	0.334389	0.055644
34	H	0.297473	0.32827	0.088364
35	H	0.305956	0.350224	0.036108
36	N	0.283861	0.216242	0.312597
37	H	0.264109	0.192465	0.305544
38	N	0.227852	0.298317	0.042298
39	H	0.24323	0.3231	0.05081
40	C	0.256105	0.033549	0.328795
41	C	0.222532	0.022272	0.015498
42	C	0.201771	0.487274	0.03257
43	C	0.215647	0.463608	0.029393
44	N	0.248381	0.47685	0.34369
45	H	0.213483	0.039757	0.019565
46	N	0.267199	0.009185	0.328219
47	C	0.16701	0.476818	0.054392
48	H	0.161198	0.498657	0.055726
49	H	0.167299	0.468308	0.088444
50	H	0.145356	0.454856	0.036166
51	N	0.279348	0.066748	0.3127
52	H	0.303127	0.070777	0.30565
53	N	0.197258	0.428652	0.04236
54	H	0.172472	0.419243	0.050856
55	C	0.462022	0.221651	0.328752
56	C	0.473297	0.199353	0.015454
57	C	0.008295	0.213596	0.032538
58	C	0.031961	0.251136	0.029352
59	N	0.018721	0.270624	0.343637
60	H	0.455804	0.172829	0.019548
61	N	0.486387	0.257106	0.328165
62	C	0.018744	0.189292	0.05438
63	H	0.996914	0.161653	0.055716
64	H	0.027249	0.198099	0.088438
65	H	0.040714	0.189597	0.036164
66	N	0.42882	0.211698	0.312661
67	H	0.424802	0.231452	0.305593
68	N	0.066916	0.267707	0.042325
69	H	0.076323	0.252331	0.050833
70	C	0.127678	0.317547	0.713633
71	N	0.150272	0.353395	0.380004
72	C	0.186319	0.367884	0.3803
73	N	0.199576	0.345294	0.379997
74	C	0.17802	0.309246	0.380296
75	N	0.142172	0.295994	0.379991
76	C	0.209408	0.404944	0.376277
77	C	0.191993	0.28616	0.376234
78	C	0.090617	0.303566	0.376254
79	O	0.168013	0.250888	0.371415
80	O	0.079321	0.327544	0.371448
81	O	0.244683	0.416238	0.371474
82	C	0.365285	0.171769	0.634727
83	N	0.337394	0.137757	0.301773
84	C	0.302924	0.130285	0.301426
85	N	0.296801	0.158173	0.301743
86	C	0.323802	0.19264	0.301374
87	N	0.357813	0.198767	0.301725
88	C	0.274294	0.095222	0.306788
89	C	0.317387	0.221285	0.306705
90	C	0.400338	0.178174	0.306761
91	O	0.34658	0.25439	0.307235
92	O	0.404233	0.148971	0.307349
93	O	0.241186	0.091304	0.307321
94	C	0.273906	0.239486	0.662023
95	C	0.296202	0.273057	0.348732
96	C	0.281965	0.293817	0.365815
97	C	0.244422	0.279937	0.362646
98	N	0.224931	0.247206	0.67693
99	H	0.32274	0.282108	0.352794
100	N	0.23845	0.228393	0.661449
101	C	0.306266	0.328572	0.38765
102	H	0.333933	0.334389	0.388975
103	H	0.297473	0.32827	0.421699
104	H	0.305956	0.350224	0.369442
105	N	0.283861	0.216242	0.645931
106	H	0.264109	0.192465	0.638879
107	N	0.227852	0.298317	0.37563
108	H	0.24323	0.3231	0.384143
109	C	0.256105	0.033549	0.66213
110	C	0.222532	0.022272	0.348832
111	C	0.201771	0.487274	0.365904
112	C	0.215647	0.463608	0.362726
113	N	0.248381	0.47685	0.677023
114	H	0.213483	0.039757	0.352897
115	N	0.267199	0.009185	0.661552
116	C	0.16701	0.476818	0.387727
117	H	0.161198	0.498657	0.389058
118	H	0.167299	0.468308	0.421775
119	H	0.145356	0.454856	0.369498
120	N	0.279348	0.066748	0.646034
121	H	0.303127	0.070777	0.638982
122	N	0.197258	0.428652	0.375693
123	H	0.172472	0.419243	0.384189
124	C	0.462022	0.221651	0.662087
125	C	0.473297	0.199353	0.348788
126	C	0.008295	0.213596	0.365871
127	C	0.031961	0.251136	0.362686
128	N	0.018721	0.270624	0.67697
129	H	0.455804	0.172829	0.352881
130	N	0.486387	0.257106	0.661499
131	C	0.018744	0.189292	0.387713
132	H	0.996914	0.161653	0.389048
133	H	0.027249	0.198099	0.421772
134	H	0.040714	0.189597	0.369498
135	N	0.42882	0.211698	0.645994
136	H	0.424802	0.231452	0.638926
137	N	0.066916	0.267707	0.375659
138	H	0.076323	0.252331	0.384166
139	C	0.127678	0.317547	0.046966
140	N	0.150272	0.353395	0.713337
141	C	0.186319	0.367884	0.713633
142	N	0.199576	0.345294	0.713331
143	C	0.17802	0.309246	0.713626
144	N	0.142172	0.295994	0.713324
145	C	0.209408	0.404944	0.709611
146	C	0.191993	0.28616	0.709564
147	C	0.090617	0.303566	0.709587
148	O	0.168013	0.250888	0.704748
149	O	0.079321	0.327544	0.704781
150	O	0.244683	0.416238	0.704808
151	C	0.365285	0.171769	0.968061
152	N	0.337394	0.137757	0.635106
153	C	0.302924	0.130285	0.634761
154	N	0.296801	0.158173	0.635076
155	C	0.323802	0.19264	0.634707
156	N	0.357813	0.198767	0.635059
157	C	0.274294	0.095222	0.640121
158	C	0.317387	0.221285	0.640038
159	C	0.400338	0.178174	0.640095
160	O	0.34658	0.25439	0.640567
161	O	0.404233	0.148971	0.640683
162	O	0.241186	0.091304	0.640653
163	C	0.273906	0.239486	0.995357
164	C	0.296202	0.273057	0.682065
165	C	0.281965	0.293817	0.699148
166	C	0.244422	0.279937	0.695979
167	N	0.224931	0.247206	0.010265
168	H	0.32274	0.282108	0.686128
169	N	0.23845	0.228393	0.994782
170	C	0.306266	0.328572	0.720984
171	H	0.333933	0.334389	0.722309
172	H	0.297473	0.32827	0.755029
173	H	0.305956	0.350224	0.702775
174	N	0.283861	0.216242	0.979264
175	H	0.264109	0.192465	0.972209
176	N	0.227852	0.298317	0.708963
177	H	0.24323	0.3231	0.717476
178	C	0.256105	0.033549	0.995463
179	C	0.222532	0.022272	0.682165
180	C	0.201771	0.487274	0.699238
181	C	0.215647	0.463608	0.696059
182	N	0.248381	0.47685	0.010357
183	H	0.213483	0.039757	0.686231
184	N	0.267199	0.009185	0.994885
185	C	0.16701	0.476818	0.72106
186	H	0.161198	0.498657	0.722392
187	H	0.167299	0.468308	0.755109
188	H	0.145356	0.454856	0.702832
189	N	0.279348	0.066748	0.979367
190	H	0.303127	0.070777	0.972316
191	N	0.197258	0.428652	0.709026
192	H	0.172472	0.419243	0.717523
193	C	0.462022	0.221651	0.99542
194	C	0.473297	0.199353	0.682119
195	C	0.008295	0.213596	0.699204
196	C	0.031961	0.251136	0.696019
197	N	0.018721	0.270624	0.010303
198	H	0.455804	0.172829	0.686214
199	N	0.486387	0.257106	0.994832
200	C	0.018744	0.189292	0.721047
201	H	0.996914	0.161653	0.722382
202	H	0.027249	0.198099	0.755105
203	H	0.040714	0.189597	0.702832
204	N	0.42882	0.211698	0.979327
205	H	0.424802	0.231452	0.972259
206	N	0.066916	0.267707	0.708993
207	H	0.076323	0.252331	0.717499
208	C	0.12768	0.81755	0.3803
209	N	0.150273	0.853397	0.046672
210	C	0.18632	0.867884	0.046967
211	N	0.199577	0.845294	0.046665
212	C	0.17802	0.809246	0.046962
213	N	0.142173	0.795994	0.046658
214	C	0.20941	0.904946	0.042943
215	C	0.191993	0.78616	0.042899
216	C	0.090619	0.803566	0.04292
217	O	0.168014	0.750889	0.038082
218	O	0.079321	0.827544	0.038115
219	O	0.244683	0.916239	0.038141
220	C	0.365285	0.67177	0.301394
221	N	0.337395	0.637757	0.968439
222	C	0.302925	0.630287	0.968094
223	N	0.296801	0.658173	0.96841
224	C	0.323802	0.692639	0.968041
225	N	0.357815	0.698769	0.96839
226	C	0.274294	0.595222	0.973455
227	C	0.317388	0.721286	0.973372
228	C	0.400339	0.678174	0.973428
229	O	0.346581	0.754391	0.9739
230	O	0.404234	0.648972	0.974016
231	O	0.241187	0.591304	0.973986
232	C	0.273907	0.739488	0.328691
233	C	0.296203	0.773057	0.015399
234	C	0.281965	0.793817	0.032482
235	C	0.244423	0.779937	0.029312
236	N	0.224932	0.747206	0.343597
237	H	0.322741	0.782108	0.019462
238	N	0.23845	0.728393	0.328116
239	C	0.306266	0.828572	0.054318
240	H	0.333933	0.834389	0.055644
241	H	0.297473	0.82827	0.088364
242	H	0.305956	0.850224	0.036108
243	N	0.283862	0.716244	0.312597
244	H	0.26411	0.692466	0.305544
245	N	0.227852	0.798317	0.042298
246	H	0.24323	0.8231	0.05081
247	C	0.256106	0.533548	0.328795
248	C	0.222532	0.522272	0.015498
249	C	0.201773	0.987274	0.03257
250	C	0.215648	0.963608	0.029393
251	N	0.248382	0.976852	0.34369
252	H	0.213484	0.539758	0.019565
253	N	0.267199	0.509185	0.328219
254	C	0.16701	0.976818	0.054392
255	H	0.161198	0.998657	0.055726
256	H	0.167298	0.968308	0.088444
257	H	0.145357	0.954856	0.036166
258	N	0.279349	0.566749	0.3127
259	H	0.303128	0.570779	0.30565
260	N	0.197259	0.928652	0.04236
261	H	0.172472	0.919246	0.050856
262	C	0.462021	0.721652	0.328752
263	C	0.473299	0.699354	0.015454
264	C	0.008296	0.713597	0.032538
265	C	0.031962	0.751135	0.029352
266	N	0.018723	0.770627	0.343637
267	H	0.455806	0.67283	0.019548
268	N	0.486388	0.757107	0.328165
269	C	0.018744	0.689293	0.05438
270	H	0.996914	0.661653	0.055716
271	H	0.02725	0.698098	0.088438
272	H	0.040715	0.689597	0.036164
273	N	0.428821	0.711698	0.312661
274	H	0.424803	0.731451	0.305593
275	N	0.066916	0.767707	0.042325
276	H	0.076324	0.752332	0.050833
277	C	0.12768	0.81755	0.713633
278	N	0.150273	0.853397	0.380004
279	C	0.18632	0.867884	0.3803
280	N	0.199577	0.845294	0.379997
281	C	0.17802	0.809246	0.380296
282	N	0.142173	0.795994	0.379991
283	C	0.20941	0.904946	0.376277
284	C	0.191993	0.78616	0.376234
285	C	0.090619	0.803566	0.376254
286	O	0.168014	0.750889	0.371415
287	O	0.079321	0.827544	0.371448
288	O	0.244683	0.916239	0.371474
289	C	0.365285	0.67177	0.634727
290	N	0.337395	0.637757	0.301773
291	C	0.302925	0.630287	0.301426
292	N	0.296801	0.658173	0.301743
293	C	0.323802	0.692639	0.301374
294	N	0.357815	0.698769	0.301725
295	C	0.274294	0.595222	0.306788
296	C	0.317388	0.721286	0.306705
297	C	0.400339	0.678174	0.306761
298	O	0.346581	0.754391	0.307235
299	O	0.404234	0.648972	0.307349
300	O	0.241187	0.591304	0.307321
301	C	0.273907	0.739488	0.662023
302	C	0.296203	0.773057	0.348732
303	C	0.281965	0.793817	0.365815
304	C	0.244423	0.779937	0.362646
305	N	0.224932	0.747206	0.67693
306	H	0.322741	0.782108	0.352794
307	N	0.23845	0.728393	0.661449
308	C	0.306266	0.828572	0.38765
309	H	0.333933	0.834389	0.388975
310	H	0.297473	0.82827	0.421699
311	H	0.305956	0.850224	0.369442
312	N	0.283862	0.716244	0.645931
313	H	0.26411	0.692466	0.638879
314	N	0.227852	0.798317	0.37563
315	H	0.24323	0.8231	0.384143
316	C	0.256106	0.533548	0.66213
317	C	0.222532	0.522272	0.348832
318	C	0.201773	0.987274	0.365904
319	C	0.215648	0.963608	0.362726
320	N	0.248382	0.976852	0.677023
321	H	0.213484	0.539758	0.352897
322	N	0.267199	0.509185	0.661552
323	C	0.16701	0.976818	0.387727
324	H	0.161198	0.998657	0.389058
325	H	0.167298	0.968308	0.421775
326	H	0.145357	0.954856	0.369498
327	N	0.279349	0.566749	0.646034
328	H	0.303128	0.570779	0.638982
329	N	0.197259	0.928652	0.375693
330	H	0.172472	0.919246	0.384189
331	C	0.462021	0.721652	0.662087
332	C	0.473299	0.699354	0.348788
333	C	0.008296	0.713597	0.365871
334	C	0.031962	0.751135	0.362686
335	N	0.018723	0.770627	0.67697
336	H	0.455806	0.67283	0.352881
337	N	0.486388	0.757107	0.661499
338	C	0.018744	0.689293	0.387713
339	H	0.996914	0.661653	0.389048
340	H	0.02725	0.698098	0.421772
341	H	0.040715	0.689597	0.369498
342	N	0.428821	0.711698	0.645994
343	H	0.424803	0.731451	0.638926
344	N	0.066916	0.767707	0.375659
345	H	0.076324	0.752332	0.384166
346	C	0.12768	0.81755	0.046966
347	N	0.150273	0.853397	0.713337
348	C	0.18632	0.867884	0.713633
349	N	0.199577	0.845294	0.713331
350	C	0.17802	0.809246	0.713626
351	N	0.142173	0.795994	0.713324
352	C	0.20941	0.904946	0.709611
353	C	0.191993	0.78616	0.709564
354	C	0.090619	0.803566	0.709587
355	O	0.168014	0.750889	0.704748
356	O	0.079321	0.827544	0.704781
357	O	0.244683	0.916239	0.704808
358	C	0.365285	0.67177	0.968061
359	N	0.337395	0.637757	0.635106
360	C	0.302925	0.630287	0.634761
361	N	0.296801	0.658173	0.635076
362	C	0.323802	0.692639	0.634707
363	N	0.357815	0.698769	0.635059
364	C	0.274294	0.595222	0.640121
365	C	0.317388	0.721286	0.640038
366	C	0.400339	0.678174	0.640095
367	O	0.346581	0.754391	0.640567
368	O	0.404234	0.648972	0.640683
369	O	0.241187	0.591304	0.640653
370	C	0.273907	0.739488	0.995357
371	C	0.296203	0.773057	0.682065
372	C	0.281965	0.793817	0.699148
373	C	0.244423	0.779937	0.695979
374	N	0.224932	0.747206	0.010265
375	H	0.322741	0.782108	0.686128
376	N	0.23845	0.728393	0.994782
377	C	0.306266	0.828572	0.720984
378	H	0.333933	0.834389	0.722309
379	H	0.297473	0.82827	0.755029
380	H	0.305956	0.850224	0.702775
381	N	0.283862	0.716244	0.979264
382	H	0.26411	0.692466	0.972209
383	N	0.227852	0.798317	0.708963
384	H	0.24323	0.8231	0.717476
385	C	0.256106	0.533548	0.995463
386	C	0.222532	0.522272	0.682165
387	C	0.201773	0.987274	0.699238
388	C	0.215648	0.963608	0.696059
389	N	0.248382	0.976852	0.010357
390	H	0.213484	0.539758	0.686231
391	N	0.267199	0.509185	0.994885
392	C	0.16701	0.976818	0.72106
393	H	0.161198	0.998657	0.722392
394	H	0.167298	0.968308	0.755109
395	H	0.145357	0.954856	0.702832
396	N	0.279349	0.566749	0.979367
397	H	0.303128	0.570779	0.972316
398	N	0.197259	0.928652	0.709026
399	H	0.172472	0.919246	0.717523
400	C	0.462021	0.721652	0.99542
401	C	0.473299	0.699354	0.682119
402	C	0.008296	0.713597	0.699204
403	C	0.031962	0.751135	0.696019
404	N	0.018723	0.770627	0.010303
405	H	0.455806	0.67283	0.686214
406	N	0.486388	0.757107	0.994832
407	C	0.018744	0.689293	0.721047
408	H	0.996914	0.661653	0.722382
409	H	0.02725	0.698098	0.755105
410	H	0.040715	0.689597	0.702832
411	N	0.428821	0.711698	0.979327
412	H	0.424803	0.731451	0.972259
413	N	0.066916	0.767707	0.708993
414	H	0.076324	0.752332	0.717499
415	C	0.627679	0.317547	0.3803
416	N	0.650273	0.353395	0.046672
417	C	0.686319	0.367884	0.046967
418	N	0.699576	0.345294	0.046665
419	C	0.67802	0.309246	0.046962
420	N	0.642172	0.295994	0.046658
421	C	0.709408	0.404944	0.042943
422	C	0.691994	0.28616	0.042899
423	C	0.590618	0.303566	0.04292
424	O	0.668014	0.250888	0.038082
425	O	0.579322	0.327544	0.038115
426	O	0.744682	0.416238	0.038141
427	C	0.865284	0.171769	0.301394
428	N	0.837396	0.137757	0.968439
429	C	0.802925	0.130285	0.968094
430	N	0.796801	0.158173	0.96841
431	C	0.823803	0.19264	0.968041
432	N	0.857814	0.198767	0.96839
433	C	0.774293	0.095222	0.973455
434	C	0.817387	0.221285	0.973372
435	C	0.900339	0.178174	0.973428
436	O	0.84658	0.25439	0.9739
437	O	0.904234	0.148971	0.974016
438	O	0.741188	0.091304	0.973986
439	C	0.773907	0.239486	0.328691
440	C	0.796202	0.273057	0.015399
441	C	0.781965	0.293817	0.032482
442	C	0.744422	0.279937	0.029312
443	N	0.724931	0.247206	0.343597
444	H	0.82274	0.282108	0.019462
445	N	0.738451	0.228393	0.328116
446	C	0.806268	0.328572	0.054318
447	H	0.833932	0.334389	0.055644
448	H	0.797473	0.32827	0.088364
449	H	0.805957	0.350224	0.036108
450	N	0.783862	0.216242	0.312597
451	H	0.76411	0.192465	0.305544
452	N	0.727852	0.298317	0.042298
453	H	0.74323	0.3231	0.05081
454	C	0.756106	0.033549	0.328795
455	C	0.722532	0.022272	0.015498
456	C	0.701771	0.487274	0.03257
457	C	0.715647	0.463608	0.029393
458	N	0.748382	0.47685	0.34369
459	H	0.713483	0.039757	0.019565
460	N	0.7672	0.009185	0.328219
461	C	0.667011	0.476818	0.054392
462	H	0.661199	0.498657	0.055726
463	H	0.667299	0.468308	0.088444
464	H	0.645356	0.454856	0.036166
465	N	0.779349	0.066748	0.3127
466	H	0.803126	0.070777	0.30565
467	N	0.697258	0.428652	0.04236
468	H	0.672472	0.419243	0.050856
469	C	0.96202	0.221651	0.328752
470	C	0.973298	0.199353	0.015454
471	C	0.508297	0.213596	0.032538
472	C	0.531961	0.251136	0.029352
473	N	0.518721	0.270624	0.343637
474	H	0.955805	0.172829	0.019548
475	N	0.986389	0.257106	0.328165
476	C	0.518745	0.189292	0.05438
477	H	0.496913	0.161653	0.055716
478	H	0.527249	0.198099	0.088438
479	H	0.540716	0.189597	0.036164
480	N	0.928821	0.211698	0.312661
481	H	0.924804	0.231452	0.305593
482	N	0.566918	0.267707	0.042325
483	H	0.576322	0.252331	0.050833
484	C	0.627679	0.317547	0.713633
485	N	0.650273	0.353395	0.380004
486	C	0.686319	0.367884	0.3803
487	N	0.699576	0.345294	0.379997
488	C	0.67802	0.309246	0.380296
489	N	0.642172	0.295994	0.379991
490	C	0.709408	0.404944	0.376277
491	C	0.691994	0.28616	0.376234
492	C	0.590618	0.303566	0.376254
493	O	0.668014	0.250888	0.371415
494	O	0.579322	0.327544	0.371448
495	O	0.744682	0.416238	0.371474
496	C	0.865284	0.171769	0.634727
497	N	0.837396	0.137757	0.301773
498	C	0.802925	0.130285	0.301426
499	N	0.796801	0.158173	0.301743
500	C	0.823803	0.19264	0.301374
501	N	0.857814	0.198767	0.301725
502	C	0.774293	0.095222	0.306788
503	C	0.817387	0.221285	0.306705
504	C	0.900339	0.178174	0.306761
505	O	0.84658	0.25439	0.307235
506	O	0.904234	0.148971	0.307349
507	O	0.741188	0.091304	0.307321
508	C	0.773907	0.239486	0.662023
509	C	0.796202	0.273057	0.348732
510	C	0.781965	0.293817	0.365815
511	C	0.744422	0.279937	0.362646
512	N	0.724931	0.247206	0.67693
513	H	0.82274	0.282108	0.352794
514	N	0.738451	0.228393	0.661449
515	C	0.806268	0.328572	0.38765
516	H	0.833932	0.334389	0.388975
517	H	0.797473	0.32827	0.421699
518	H	0.805957	0.350224	0.369442
519	N	0.783862	0.216242	0.645931
520	H	0.76411	0.192465	0.638879
521	N	0.727852	0.298317	0.37563
522	H	0.74323	0.3231	0.384143
523	C	0.756106	0.033549	0.66213
524	C	0.722532	0.022272	0.348832
525	C	0.701771	0.487274	0.365904
526	C	0.715647	0.463608	0.362726
527	N	0.748382	0.47685	0.677023
528	H	0.713483	0.039757	0.352897
529	N	0.7672	0.009185	0.661552
530	C	0.667011	0.476818	0.387727
531	H	0.661199	0.498657	0.389058
532	H	0.667299	0.468308	0.421775
533	H	0.645356	0.454856	0.369498
534	N	0.779349	0.066748	0.646034
535	H	0.803126	0.070777	0.638982
536	N	0.697258	0.428652	0.375693
537	H	0.672472	0.419243	0.384189
538	C	0.96202	0.221651	0.662087
539	C	0.973298	0.199353	0.348788
540	C	0.508297	0.213596	0.365871
541	C	0.531961	0.251136	0.362686
542	N	0.518721	0.270624	0.67697
543	H	0.955805	0.172829	0.352881
544	N	0.986389	0.257106	0.661499
545	C	0.518745	0.189292	0.387713
546	H	0.496913	0.161653	0.389048
547	H	0.527249	0.198099	0.421772
548	H	0.540716	0.189597	0.369498
549	N	0.928821	0.211698	0.645994
550	H	0.924804	0.231452	0.638926
551	N	0.566918	0.267707	0.375659
552	H	0.576322	0.252331	0.384166
553	C	0.627679	0.317547	0.046966
554	N	0.650273	0.353395	0.713337
555	C	0.686319	0.367884	0.713633
556	N	0.699576	0.345294	0.713331
557	C	0.67802	0.309246	0.713626
558	N	0.642172	0.295994	0.713324
559	C	0.709408	0.404944	0.709611
560	C	0.691994	0.28616	0.709564
561	C	0.590618	0.303566	0.709587
562	O	0.668014	0.250888	0.704748
563	O	0.579322	0.327544	0.704781
564	O	0.744682	0.416238	0.704808
565	C	0.865284	0.171769	0.968061
566	N	0.837396	0.137757	0.635106
567	C	0.802925	0.130285	0.634761
568	N	0.796801	0.158173	0.635076
569	C	0.823803	0.19264	0.634707
570	N	0.857814	0.198767	0.635059
571	C	0.774293	0.095222	0.640121
572	C	0.817387	0.221285	0.640038
573	C	0.900339	0.178174	0.640095
574	O	0.84658	0.25439	0.640567
575	O	0.904234	0.148971	0.640683
576	O	0.741188	0.091304	0.640653
577	C	0.773907	0.239486	0.995357
578	C	0.796202	0.273057	0.682065
579	C	0.781965	0.293817	0.699148
580	C	0.744422	0.279937	0.695979
581	N	0.724931	0.247206	0.010265
582	H	0.82274	0.282108	0.686128
583	N	0.738451	0.228393	0.994782
584	C	0.806268	0.328572	0.720984
585	H	0.833932	0.334389	0.722309
586	H	0.797473	0.32827	0.755029
587	H	0.805957	0.350224	0.702775
588	N	0.783862	0.216242	0.979264
589	H	0.76411	0.192465	0.972209
590	N	0.727852	0.298317	0.708963
591	H	0.74323	0.3231	0.717476
592	C	0.756106	0.033549	0.995463
593	C	0.722532	0.022272	0.682165
594	C	0.701771	0.487274	0.699238
595	C	0.715647	0.463608	0.696059
596	N	0.748382	0.47685	0.010357
597	H	0.713483	0.039757	0.686231
598	N	0.7672	0.009185	0.994885
599	C	0.667011	0.476818	0.72106
600	H	0.661199	0.498657	0.722392
601	H	0.667299	0.468308	0.755109
602	H	0.645356	0.454856	0.702832
603	N	0.779349	0.066748	0.979367
604	H	0.803126	0.070777	0.972316
605	N	0.697258	0.428652	0.709026
606	H	0.672472	0.419243	0.717523
607	C	0.96202	0.221651	0.99542
608	C	0.973298	0.199353	0.682119
609	C	0.508297	0.213596	0.699204
610	C	0.531961	0.251136	0.696019
611	N	0.518721	0.270624	0.010303
612	H	0.955805	0.172829	0.686214
613	N	0.986389	0.257106	0.994832
614	C	0.518745	0.189292	0.721047
615	H	0.496913	0.161653	0.722382
616	H	0.527249	0.198099	0.755105
617	H	0.540716	0.189597	0.702832
618	N	0.928821	0.211698	0.979327
619	H	0.924804	0.231452	0.972259
620	N	0.566918	0.267707	0.708993
621	H	0.576322	0.252331	0.717499
622	C	0.627681	0.81755	0.3803
623	N	0.650274	0.853397	0.046672
624	C	0.686319	0.867884	0.046967
625	N	0.699576	0.845294	0.046665
626	C	0.67802	0.809246	0.046962
627	N	0.642174	0.795994	0.046658
628	C	0.709409	0.904946	0.042943
629	C	0.691994	0.78616	0.042899
630	C	0.590618	0.803566	0.04292
631	O	0.668014	0.750889	0.038082
632	O	0.579322	0.827544	0.038115
633	O	0.744684	0.916239	0.038141
634	C	0.865285	0.67177	0.301394
635	N	0.837396	0.637757	0.968439
636	C	0.802926	0.630287	0.968094
637	N	0.796801	0.658173	0.96841
638	C	0.823802	0.692639	0.968041
639	N	0.857815	0.698769	0.96839
640	C	0.774296	0.595222	0.973455
641	C	0.817388	0.721286	0.973372
642	C	0.900339	0.678174	0.973428
643	O	0.846583	0.754391	0.9739
644	O	0.904235	0.648972	0.974016
645	O	0.741188	0.591304	0.973986
646	C	0.773908	0.739488	0.328691
647	C	0.796204	0.773057	0.015399
648	C	0.781965	0.793817	0.032482
649	C	0.744424	0.779937	0.029312
650	N	0.724932	0.747206	0.343597
651	H	0.82274	0.782108	0.019462
652	N	0.738451	0.728393	0.328116
653	C	0.806268	0.828572	0.054318
654	H	0.833934	0.834389	0.055644
655	H	0.797473	0.82827	0.088364
656	H	0.805957	0.850224	0.036108
657	N	0.783863	0.716244	0.312597
658	H	0.76411	0.692466	0.305544
659	N	0.727852	0.798317	0.042298
660	H	0.74323	0.8231	0.05081
661	C	0.756106	0.533548	0.328795
662	C	0.722532	0.522272	0.015498
663	C	0.701772	0.987274	0.03257
664	C	0.715647	0.963608	0.029393
665	N	0.748383	0.976852	0.34369
666	H	0.713486	0.539758	0.019565
667	N	0.7672	0.509185	0.328219
668	C	0.667011	0.976818	0.054392
669	H	0.661199	0.998657	0.055726
670	H	0.667299	0.968308	0.088444
671	H	0.645356	0.954856	0.036166
672	N	0.779349	0.566749	0.3127
673	H	0.803129	0.570779	0.30565
674	N	0.69726	0.928652	0.04236
675	H	0.672474	0.919246	0.050856
676	C	0.962021	0.721652	0.328752
677	C	0.973298	0.699354	0.015454
678	C	0.508297	0.713597	0.032538
679	C	0.531962	0.751135	0.029352
680	N	0.518723	0.770627	0.343637
681	H	0.955806	0.67283	0.019548
682	N	0.986389	0.757107	0.328165
683	C	0.518745	0.689293	0.05438
684	H	0.496913	0.661653	0.055716
685	H	0.52725	0.698098	0.088438
686	H	0.540715	0.689597	0.036164
687	N	0.928821	0.711698	0.312661
688	H	0.924803	0.731451	0.305593
689	N	0.566917	0.767707	0.042325
690	H	0.576324	0.752332	0.050833
691	C	0.627681	0.81755	0.713633
692	N	0.650274	0.853397	0.380004
693	C	0.686319	0.867884	0.3803
694	N	0.699576	0.845294	0.379997
695	C	0.67802	0.809246	0.380296
696	N	0.642174	0.795994	0.379991
697	C	0.709409	0.904946	0.376277
698	C	0.691994	0.78616	0.376234
699	C	0.590618	0.803566	0.376254
700	O	0.668014	0.750889	0.371415
701	O	0.579322	0.827544	0.371448
702	O	0.744684	0.916239	0.371474
703	C	0.865285	0.67177	0.634727
704	N	0.837396	0.637757	0.301773
705	C	0.802926	0.630287	0.301426
706	N	0.796801	0.658173	0.301743
707	C	0.823802	0.692639	0.301374
708	N	0.857815	0.698769	0.301725
709	C	0.774296	0.595222	0.306788
710	C	0.817388	0.721286	0.306705
711	C	0.900339	0.678174	0.306761
712	O	0.846583	0.754391	0.307235
713	O	0.904235	0.648972	0.307349
714	O	0.741188	0.591304	0.307321
715	C	0.773908	0.739488	0.662023
716	C	0.796204	0.773057	0.348732
717	C	0.781965	0.793817	0.365815
718	C	0.744424	0.779937	0.362646
719	N	0.724932	0.747206	0.67693
720	H	0.82274	0.782108	0.352794
721	N	0.738451	0.728393	0.661449
722	C	0.806268	0.828572	0.38765
723	H	0.833934	0.834389	0.388975
724	H	0.797473	0.82827	0.421699
725	H	0.805957	0.850224	0.369442
726	N	0.783863	0.716244	0.645931
727	H	0.76411	0.692466	0.638879
728	N	0.727852	0.798317	0.37563
729	H	0.74323	0.8231	0.384143
730	C	0.756106	0.533548	0.66213
731	C	0.722532	0.522272	0.348832
732	C	0.701772	0.987274	0.365904
733	C	0.715647	0.963608	0.362726
734	N	0.748383	0.976852	0.677023
735	H	0.713486	0.539758	0.352897
736	N	0.7672	0.509185	0.661552
737	C	0.667011	0.976818	0.387727
738	H	0.661199	0.998657	0.389058
739	H	0.667299	0.968308	0.421775
740	H	0.645356	0.954856	0.369498
741	N	0.779349	0.566749	0.646034
742	H	0.803129	0.570779	0.638982
743	N	0.69726	0.928652	0.375693
744	H	0.672474	0.919246	0.384189
745	C	0.962021	0.721652	0.662087
746	C	0.973298	0.699354	0.348788
747	C	0.508297	0.713597	0.365871
748	C	0.531962	0.751135	0.362686
749	N	0.518723	0.770627	0.67697
750	H	0.955806	0.67283	0.352881
751	N	0.986389	0.757107	0.661499
752	C	0.518745	0.689293	0.387713
753	H	0.496913	0.661653	0.389048
754	H	0.52725	0.698098	0.421772
755	H	0.540715	0.689597	0.369498
756	N	0.928821	0.711698	0.645994
757	H	0.924803	0.731451	0.638926
758	N	0.566917	0.767707	0.375659
759	H	0.576324	0.752332	0.384166
760	C	0.627681	0.81755	0.046966
761	N	0.650274	0.853397	0.713337
762	C	0.686319	0.867884	0.713633
763	N	0.699576	0.845294	0.713331
764	C	0.67802	0.809246	0.713626
765	N	0.642174	0.795994	0.713324
766	C	0.709409	0.904946	0.709611
767	C	0.691994	0.78616	0.709564
768	C	0.590618	0.803566	0.709587
769	O	0.668014	0.750889	0.704748
770	O	0.579322	0.827544	0.704781
771	O	0.744684	0.916239	0.704808
772	C	0.865285	0.67177	0.968061
773	N	0.837396	0.637757	0.635106
774	C	0.802926	0.630287	0.634761
775	N	0.796801	0.658173	0.635076
776	C	0.823802	0.692639	0.634707
777	N	0.857815	0.698769	0.635059
778	C	0.774296	0.595222	0.640121
779	C	0.817388	0.721286	0.640038
780	C	0.900339	0.678174	0.640095
781	O	0.846583	0.754391	0.640567
782	O	0.904235	0.648972	0.640683
783	O	0.741188	0.591304	0.640653
784	C	0.773908	0.739488	0.995357
785	C	0.796204	0.773057	0.682065
786	C	0.781965	0.793817	0.699148
787	C	0.744424	0.779937	0.695979
788	N	0.724932	0.747206	0.010265
789	H	0.82274	0.782108	0.686128
790	N	0.738451	0.728393	0.994782
791	C	0.806268	0.828572	0.720984
792	H	0.833934	0.834389	0.722309
793	H	0.797473	0.82827	0.755029
794	H	0.805957	0.850224	0.702775
795	N	0.783863	0.716244	0.979264
796	H	0.76411	0.692466	0.972209
797	N	0.727852	0.798317	0.708963
798	H	0.74323	0.8231	0.717476
799	C	0.756106	0.533548	0.995463
800	C	0.722532	0.522272	0.682165
801	C	0.701772	0.987274	0.699238
802	C	0.715647	0.963608	0.696059
803	N	0.748383	0.976852	0.010357
804	H	0.713486	0.539758	0.686231
805	N	0.7672	0.509185	0.994885
806	C	0.667011	0.976818	0.72106
807	H	0.661199	0.998657	0.722392
808	H	0.667299	0.968308	0.755109
809	H	0.645356	0.954856	0.702832
810	N	0.779349	0.566749	0.979367
811	H	0.803129	0.570779	0.972316
812	N	0.69726	0.928652	0.709026
813	H	0.672474	0.919246	0.717523
814	C	0.962021	0.721652	0.99542
815	C	0.973298	0.699354	0.682119
816	C	0.508297	0.713597	0.699204
817	C	0.531962	0.751135	0.696019
818	N	0.518723	0.770627	0.010303
819	H	0.955806	0.67283	0.686214
820	N	0.986389	0.757107	0.994832
821	C	0.518745	0.689293	0.721047
822	H	0.496913	0.661653	0.722382
823	H	0.52725	0.698098	0.755105
824	H	0.540715	0.689597	0.702832
825	N	0.928821	0.711698	0.979327
826	H	0.924803	0.731451	0.972259
827	N	0.566917	0.767707	0.708993
828	H	0.576324	0.752332	0.717499
