data_C648H216N432_2018-02-15_10:38:15
#******************************************
#
# CIF file created by Zeo++
# Zeo++ is an open source package to
# analyze microporous materials
#
#*******************************************

_cell_length_a		42.2178   
_cell_length_b		54.7338   
_cell_length_c		29.8322   
_cell_angle_alpha		90   
_cell_angle_beta		90   
_cell_angle_gamma		90   

_symmetry_space_group_name_H-M		'P1'
_symmetry_Int_Tables_number		1
_symmetry_cell_setting		Orthorhombic

loop_
_symmetry_equiv_pos_as_xyz
'+x,+y,+z'

loop_
_atom_site_label
_atom_site_type_symbol
_atom_site_fract_x
_atom_site_fract_y
_atom_site_fract_z
1	C	0.186888	0.17368	0.004804
2	N	0.164925	0.155296	0.004267
3	C	0.133042	0.160205	0.003681
4	N	0.12402	0.184206	0.003518
5	C	0.144673	0.203097	0.004039
6	N	0.175405	0.196816	0.004658
7	C	0.319003	0.83212	0.998789
8	N	0.34097	0.850469	0.000924
9	C	0.372821	0.845519	0.002894
10	N	0.381791	0.821505	0.003013
11	C	0.361125	0.80265	0.001035
12	N	0.330443	0.808975	0.99897
13	C	0.320464	0.172761	0.003463
14	N	0.342675	0.154647	0.002826
15	C	0.374392	0.160045	0.00193
16	N	0.3829	0.184171	0.001554
17	C	0.361793	0.202807	0.002111
18	N	0.331152	0.196157	0.003096
19	C	0.185457	0.832885	0.998822
20	N	0.163292	0.851002	0.000917
21	C	0.131591	0.845618	0.002513
22	N	0.123066	0.821501	0.002292
23	C	0.144119	0.802858	0.000361
24	N	0.174765	0.809483	0.998615
25	C	0.436633	0.673845	0.006512
26	N	0.414742	0.65539	0.004972
27	C	0.382822	0.660184	0.003331
28	N	0.373674	0.684147	0.002954
29	C	0.394355	0.702949	0.004456
30	N	0.425129	0.696986	0.00622
31	C	0.068692	0.331831	0.999647
32	N	0.090575	0.350286	0.001296
33	C	0.122488	0.345494	0.002957
34	N	0.131642	0.321534	0.003209
35	C	0.110968	0.302727	0.001762
36	N	0.080184	0.308681	0.999986
37	C	0.07022	0.673158	0.005058
38	N	0.092316	0.654939	0.003666
39	C	0.124075	0.660175	0.00203
40	N	0.132766	0.684248	0.001531
41	C	0.111687	0.702836	0.002751
42	N	0.080951	0.696564	0.004578
43	C	0.43511	0.332659	0.999389
44	N	0.412984	0.350845	0.001229
45	C	0.381223	0.345574	0.002597
46	N	0.372558	0.32149	0.002342
47	C	0.393673	0.302935	0.000612
48	N	0.424394	0.309253	0.999134
49	C	0.032259	0.092255	0.002801
50	N	0.031578	0.067384	0.003341
51	C	0.003603	0.054573	0.003362
52	N	0.475811	0.067582	0.00289
53	C	0.475418	0.092433	0.002309
54	N	0.003886	0.103668	0.002285
55	C	0.473696	0.913384	0.005966
56	N	0.474305	0.938263	0.005284
57	C	0.502366	0.950897	0.005075
58	N	0.030258	0.938074	0.005298
59	C	0.030582	0.913214	0.005942
60	N	0.502094	0.901969	0.006295
61	C	0.281917	0.592285	0.001665
62	N	0.281208	0.567417	0.002604
63	C	0.253227	0.554617	0.002844
64	N	0.225441	0.567633	0.002295
65	C	0.225056	0.59248	0.001343
66	N	0.253542	0.603707	0.001028
67	C	0.223323	0.413437	0.005518
68	N	0.223939	0.438314	0.004955
69	C	0.252003	0.450946	0.00484
70	N	0.279896	0.43812	0.005068
71	C	0.28023	0.41326	0.005607
72	N	0.251728	0.402022	0.005855
73	C	0.237592	0.149108	0.004317
74	N	0.270073	0.149028	0.003885
75	C	0.28727	0.170134	0.004293
76	N	0.270808	0.19135	0.338684
77	C	0.239221	0.192747	0.339197
78	C	0.220345	0.171361	0.338419
79	H	0.225928	0.132767	0.003746
80	H	0.230013	0.209985	0.339924
81	C	0.268264	0.856635	0.99954
82	N	0.235782	0.856659	0.999821
83	C	0.218636	0.835564	0.997525
84	N	0.23513	0.814423	0.327801
85	C	0.266729	0.813091	0.327301
86	C	0.285557	0.834438	0.330599
87	H	0.279887	0.872947	0.001923
88	H	0.275993	0.795912	0.325017
89	C	0.48742	0.649396	0.00584
90	N	0.019898	0.64939	0.005249
91	C	0.037034	0.670516	0.00651
92	N	0.020527	0.691682	0.34214
93	C	0.488919	0.692997	0.342924
94	C	0.470103	0.671598	0.340843
95	H	0.475813	0.633047	0.004321
96	H	0.479629	0.710199	0.34454
97	C	0.01795	0.356341	0.000106
98	N	0.48547	0.356381	0.000284
99	C	0.468307	0.335286	0.99833
100	N	0.484803	0.314118	0.329145
101	C	0.016408	0.312761	0.328814
102	C	0.03524	0.334126	0.331614
103	H	0.029577	0.372664	0.002124
104	H	0.025686	0.295563	0.326932
105	C	0.114536	0.116485	0.337068
106	N	0.089947	0.100187	0.336891
107	C	0.059128	0.107576	0.336217
108	N	0.053697	0.132028	0.002386
109	C	0.076744	0.148991	0.002547
110	C	0.109031	0.142071	0.003296
111	H	0.137113	0.109793	0.337642
112	H	0.069696	0.166839	0.002158
113	C	0.391411	0.889211	0.337068
114	N	0.416026	0.90548	0.337722
115	C	0.446821	0.898066	0.339163
116	N	0.452203	0.87361	0.006733
117	C	0.429117	0.856671	0.006208
118	C	0.396859	0.86362	0.004392
119	H	0.368861	0.895929	0.335751
120	H	0.436119	0.838816	0.006849
121	C	0.393227	0.116495	0.002302
122	N	0.417883	0.100294	0.002436
123	C	0.448635	0.107806	0.001926
124	N	0.453998	0.132271	0.334527
125	C	0.430828	0.149159	0.334315
126	C	0.3986	0.142093	0.334997
127	H	0.370697	0.109707	0.002821
128	H	0.437692	0.167049	0.333827
129	C	0.112764	0.889163	0.003684
130	N	0.088105	0.905358	0.00443
131	C	0.057366	0.89784	0.005712
132	N	0.052015	0.873374	0.339636
133	C	0.075189	0.856491	0.338962
134	C	0.107398	0.863563	0.337373
135	H	0.13528	0.895956	0.00253
136	H	0.068332	0.838598	0.339378
137	C	0.364266	0.616449	0.336623
138	N	0.339643	0.60017	0.336307
139	C	0.308834	0.607566	0.334956
140	N	0.303453	0.632015	0.000492
141	C	0.32653	0.648953	0.0007
142	C	0.358813	0.642038	0.002339
143	H	0.386823	0.609747	0.337853
144	H	0.319486	0.666798	0.999875
145	C	0.141007	0.389233	0.336864
146	N	0.165612	0.405523	0.337434
147	C	0.196429	0.398134	0.338691
148	N	0.201836	0.373685	0.006129
149	C	0.178773	0.356736	0.005673
150	C	0.146485	0.363645	0.004128
151	H	0.118442	0.395929	0.335744
152	H	0.185828	0.338893	0.006242
153	C	0.142839	0.616579	0.002238
154	N	0.167489	0.60036	0.002144
155	C	0.198253	0.607842	0.001018
156	N	0.203627	0.632295	0.333207
157	C	0.18047	0.649193	0.333182
158	C	0.148231	0.642171	0.334595
159	H	0.120307	0.609815	0.003303
160	H	0.187378	0.667068	0.332387
161	C	0.362437	0.38916	0.003692
162	N	0.337786	0.405371	0.004344
163	C	0.307024	0.397884	0.005439
164	N	0.301657	0.373422	0.339277
165	C	0.32482	0.356525	0.338691
166	C	0.357055	0.363559	0.3373
167	H	0.384966	0.395934	0.002694
168	H	0.317923	0.338643	0.339039
169	C	0.159055	0.247154	0.005227
170	N	0.150429	0.27101	0.004545
171	C	0.11963	0.277892	0.002302
172	N	0.097073	0.26013	0.334126
173	C	0.104216	0.235975	0.334733
174	C	0.136082	0.228245	0.336981
175	H	0.182701	0.24336	0.006939
176	H	0.086054	0.223662	0.333416
177	C	0.401269	0.76967	0.006694
178	N	0.40828	0.745497	0.00757
179	C	0.385778	0.727797	0.003738
180	N	0.355175	0.73476	0.332045
181	C	0.34669	0.758639	0.330884
182	C	0.369607	0.777485	0.334912
183	H	0.419368	0.781932	0.009958
184	H	0.323195	0.762503	0.326984
185	C	0.401615	0.236203	0.332826
186	N	0.408311	0.260446	0.332448
187	C	0.385446	0.277973	0.334079
188	N	0.354779	0.270703	0.002877
189	C	0.346586	0.24674	0.003334
190	C	0.369903	0.22808	0.001685
191	H	0.420015	0.224103	0.331488
192	H	0.323011	0.242662	0.00501
193	C	0.159063	0.758874	0.332006
194	N	0.150732	0.73494	0.332773
195	C	0.120038	0.727773	0.335396
196	N	0.097286	0.745376	0.003891
197	C	0.104124	0.769594	0.003264
198	C	0.135869	0.777611	0.000626
199	H	0.182652	0.762877	0.330063
200	H	0.085802	0.781752	0.004862
201	C	0.974816	0.014692	0.337085
202	N	0.975273	0.989867	0.337474
203	C	0.002657	0.976793	0.33793
204	N	0.030356	0.989487	0.004697
205	C	0.031443	0.014303	0.004334
206	C	0.0033	0.028393	0.00383
207	H	0.953249	0.023139	0.336733
208	H	0.053205	0.02245	0.00443
209	C	0.224436	0.514738	0.336797
210	N	0.224897	0.489913	0.337226
211	C	0.252282	0.476842	0.337739
212	N	0.279979	0.489536	0.004511
213	C	0.281061	0.514351	0.004105
214	C	0.252919	0.528439	0.003524
215	H	0.202868	0.523183	0.336371
216	H	0.302825	0.5225	0.00418
217	C	0.186888	0.17368	0.338138
218	N	0.164925	0.155296	0.337601
219	C	0.133042	0.160205	0.337015
220	N	0.12402	0.184206	0.33685
221	C	0.144673	0.203097	0.337373
222	N	0.175405	0.196816	0.337994
223	C	0.319003	0.83212	0.332123
224	N	0.34097	0.850469	0.334258
225	C	0.372821	0.845519	0.336227
226	N	0.381791	0.821505	0.336348
227	C	0.361125	0.80265	0.334369
228	N	0.330443	0.808975	0.332302
229	C	0.320464	0.172761	0.336797
230	N	0.342675	0.154647	0.33616
231	C	0.374392	0.160045	0.335262
232	N	0.3829	0.184171	0.334886
233	C	0.361793	0.202807	0.335443
234	N	0.331152	0.196157	0.336431
235	C	0.185457	0.832885	0.332154
236	N	0.163292	0.851002	0.334249
237	C	0.131591	0.845618	0.335845
238	N	0.123066	0.821501	0.335624
239	C	0.144119	0.802858	0.333694
240	N	0.174765	0.809483	0.331947
241	C	0.436633	0.673845	0.339847
242	N	0.414742	0.65539	0.338305
243	C	0.382822	0.660184	0.336666
244	N	0.373674	0.684147	0.336287
245	C	0.394355	0.702949	0.337789
246	N	0.425129	0.696986	0.339552
247	C	0.068692	0.331831	0.332978
248	N	0.090575	0.350286	0.334631
249	C	0.122488	0.345494	0.336291
250	N	0.131642	0.321534	0.336542
251	C	0.110968	0.302727	0.335094
252	N	0.080184	0.308681	0.333318
253	C	0.07022	0.673158	0.338392
254	N	0.092316	0.654939	0.337001
255	C	0.124075	0.660175	0.335362
256	N	0.132766	0.684248	0.334863
257	C	0.111687	0.702836	0.336083
258	N	0.080951	0.696564	0.337913
259	C	0.43511	0.332659	0.33272
260	N	0.412984	0.350845	0.334561
261	C	0.381223	0.345574	0.335932
262	N	0.372558	0.32149	0.335674
263	C	0.393673	0.302935	0.333947
264	N	0.424394	0.309253	0.332465
265	C	0.032259	0.092255	0.336136
266	N	0.031578	0.067384	0.336673
267	C	0.003603	0.054573	0.336696
268	N	0.475811	0.067582	0.336224
269	C	0.475418	0.092433	0.33564
270	N	0.003886	0.103668	0.335617
271	C	0.473696	0.913384	0.339301
272	N	0.474305	0.938263	0.338617
273	C	0.502366	0.950897	0.338409
274	N	0.030258	0.938074	0.33863
275	C	0.030582	0.913214	0.339274
276	N	0.502094	0.901969	0.339629
277	C	0.281917	0.592285	0.334996
278	N	0.281208	0.567417	0.335935
279	C	0.253227	0.554617	0.336177
280	N	0.225441	0.567633	0.335627
281	C	0.225056	0.59248	0.334674
282	N	0.253542	0.603707	0.33436
283	C	0.223323	0.413437	0.338852
284	N	0.223939	0.438314	0.338288
285	C	0.252003	0.450946	0.338175
286	N	0.279896	0.43812	0.338402
287	C	0.28023	0.41326	0.338942
288	N	0.251728	0.402022	0.33919
289	C	0.237592	0.149108	0.337652
290	N	0.270073	0.149028	0.337219
291	C	0.28727	0.170134	0.337628
292	N	0.270808	0.19135	0.672018
293	C	0.239221	0.192747	0.672531
294	C	0.220345	0.171361	0.671753
295	H	0.225928	0.132767	0.337082
296	H	0.230013	0.209985	0.673258
297	C	0.268264	0.856635	0.332871
298	N	0.235782	0.856659	0.333155
299	C	0.218636	0.835564	0.330859
300	N	0.23513	0.814423	0.661134
301	C	0.266729	0.813091	0.660634
302	C	0.285557	0.834438	0.663933
303	H	0.279887	0.872947	0.335258
304	H	0.275993	0.795912	0.658352
305	C	0.48742	0.649396	0.339173
306	N	0.019898	0.64939	0.338583
307	C	0.037034	0.670516	0.339844
308	N	0.020527	0.691682	0.675474
309	C	0.488919	0.692997	0.676259
310	C	0.470103	0.671598	0.674177
311	H	0.475813	0.633047	0.337655
312	H	0.479629	0.710199	0.677874
313	C	0.01795	0.356341	0.333438
314	N	0.48547	0.356381	0.333615
315	C	0.468307	0.335286	0.331661
316	N	0.484803	0.314118	0.662478
317	C	0.016408	0.312761	0.66215
318	C	0.03524	0.334126	0.664949
319	H	0.029577	0.372664	0.335459
320	H	0.025686	0.295563	0.660266
321	C	0.114536	0.116485	0.670402
322	N	0.089947	0.100187	0.670225
323	C	0.059128	0.107576	0.669551
324	N	0.053697	0.132028	0.335721
325	C	0.076744	0.148991	0.335878
326	C	0.109031	0.142071	0.336629
327	H	0.137113	0.109793	0.670976
328	H	0.069696	0.166839	0.33549
329	C	0.391411	0.889211	0.670402
330	N	0.416026	0.90548	0.671056
331	C	0.446821	0.898066	0.672497
332	N	0.452203	0.87361	0.340068
333	C	0.429117	0.856671	0.339542
334	C	0.396859	0.86362	0.337725
335	H	0.368861	0.895929	0.669085
336	H	0.436119	0.838816	0.340182
337	C	0.393227	0.116495	0.335634
338	N	0.417883	0.100294	0.335768
339	C	0.448635	0.107806	0.335258
340	N	0.453998	0.132271	0.667862
341	C	0.430828	0.149159	0.667647
342	C	0.3986	0.142093	0.668331
343	H	0.370697	0.109707	0.336153
344	H	0.437692	0.167049	0.667161
345	C	0.112764	0.889163	0.337018
346	N	0.088105	0.905358	0.337766
347	C	0.057366	0.89784	0.339046
348	N	0.052015	0.873374	0.67297
349	C	0.075189	0.856491	0.672296
350	C	0.107398	0.863563	0.670704
351	H	0.13528	0.895956	0.335865
352	H	0.068332	0.838598	0.672712
353	C	0.364266	0.616449	0.669957
354	N	0.339643	0.60017	0.669642
355	C	0.308834	0.607566	0.668291
356	N	0.303453	0.632015	0.333824
357	C	0.32653	0.648953	0.334033
358	C	0.358813	0.642038	0.335671
359	H	0.386823	0.609747	0.671187
360	H	0.319486	0.666798	0.333206
361	C	0.141007	0.389233	0.670198
362	N	0.165612	0.405523	0.670768
363	C	0.196429	0.398134	0.672025
364	N	0.201836	0.373685	0.339462
365	C	0.178773	0.356736	0.339006
366	C	0.146485	0.363645	0.337461
367	H	0.118442	0.395929	0.669078
368	H	0.185828	0.338893	0.339576
369	C	0.142839	0.616579	0.335573
370	N	0.167489	0.60036	0.335479
371	C	0.198253	0.607842	0.334351
372	N	0.203627	0.632295	0.666541
373	C	0.18047	0.649193	0.666514
374	C	0.148231	0.642171	0.667929
375	H	0.120307	0.609815	0.336636
376	H	0.187378	0.667068	0.66572
377	C	0.362437	0.38916	0.337025
378	N	0.337786	0.405371	0.337678
379	C	0.307024	0.397884	0.338775
380	N	0.301657	0.373422	0.672611
381	C	0.32482	0.356525	0.672022
382	C	0.357055	0.363559	0.670634
383	H	0.384966	0.395934	0.336026
384	H	0.317923	0.338643	0.672373
385	C	0.159055	0.247154	0.33856
386	N	0.150429	0.27101	0.33788
387	C	0.11963	0.277892	0.335634
388	N	0.097073	0.26013	0.667459
389	C	0.104216	0.235975	0.668066
390	C	0.136082	0.228245	0.670315
391	H	0.182701	0.24336	0.340273
392	H	0.086054	0.223662	0.666749
393	C	0.401269	0.76967	0.340028
394	N	0.40828	0.745497	0.340903
395	C	0.385778	0.727797	0.337072
396	N	0.355175	0.73476	0.665378
397	C	0.34669	0.758639	0.664218
398	C	0.369607	0.777485	0.668247
399	H	0.419368	0.781932	0.34329
400	H	0.323195	0.762503	0.660316
401	C	0.401615	0.236203	0.666159
402	N	0.408311	0.260446	0.66578
403	C	0.385446	0.277973	0.667412
404	N	0.354779	0.270703	0.33621
405	C	0.346586	0.24674	0.336669
406	C	0.369903	0.22808	0.335017
407	H	0.420015	0.224103	0.664821
408	H	0.323011	0.242662	0.338342
409	C	0.159063	0.758874	0.665341
410	N	0.150732	0.73494	0.666105
411	C	0.120038	0.727773	0.66873
412	N	0.097286	0.745376	0.337226
413	C	0.104124	0.769594	0.336599
414	C	0.135869	0.777611	0.333959
415	H	0.182652	0.762877	0.663397
416	H	0.085802	0.781752	0.338195
417	C	0.974816	0.014692	0.670419
418	N	0.975273	0.989867	0.670808
419	C	0.002657	0.976793	0.671264
420	N	0.030356	0.989487	0.33803
421	C	0.031443	0.014303	0.337668
422	C	0.0033	0.028393	0.337162
423	H	0.953249	0.023139	0.670067
424	H	0.053205	0.02245	0.337762
425	C	0.224436	0.514738	0.670131
426	N	0.224897	0.489913	0.67056
427	C	0.252282	0.476842	0.67107
428	N	0.279979	0.489536	0.337846
429	C	0.281061	0.514351	0.33744
430	C	0.252919	0.528439	0.336857
431	H	0.202868	0.523183	0.669705
432	H	0.302825	0.5225	0.337514
433	C	0.186888	0.17368	0.671472
434	N	0.164925	0.155296	0.670935
435	C	0.133042	0.160205	0.670349
436	N	0.12402	0.184206	0.670185
437	C	0.144673	0.203097	0.670707
438	N	0.175405	0.196816	0.671324
439	C	0.319003	0.83212	0.665458
440	N	0.34097	0.850469	0.66759
441	C	0.372821	0.845519	0.669561
442	N	0.381791	0.821505	0.669682
443	C	0.361125	0.80265	0.667704
444	N	0.330443	0.808975	0.665636
445	C	0.320464	0.172761	0.670131
446	N	0.342675	0.154647	0.669494
447	C	0.374392	0.160045	0.668596
448	N	0.3829	0.184171	0.66822
449	C	0.361793	0.202807	0.668777
450	N	0.331152	0.196157	0.669762
451	C	0.185457	0.832885	0.665488
452	N	0.163292	0.851002	0.667583
453	C	0.131591	0.845618	0.669179
454	N	0.123066	0.821501	0.668958
455	C	0.144119	0.802858	0.667027
456	N	0.174765	0.809483	0.66528
457	C	0.436633	0.673845	0.673181
458	N	0.414742	0.65539	0.671639
459	C	0.382822	0.660184	0.669997
460	N	0.373674	0.684147	0.669621
461	C	0.394355	0.702949	0.671123
462	N	0.425129	0.696986	0.672886
463	C	0.068692	0.331831	0.666313
464	N	0.090575	0.350286	0.667965
465	C	0.122488	0.345494	0.669625
466	N	0.131642	0.321534	0.669876
467	C	0.110968	0.302727	0.668428
468	N	0.080184	0.308681	0.666651
469	C	0.07022	0.673158	0.671727
470	N	0.092316	0.654939	0.670332
471	C	0.124075	0.660175	0.668696
472	N	0.132766	0.684248	0.668197
473	C	0.111687	0.702836	0.669417
474	N	0.080951	0.696564	0.671244
475	C	0.43511	0.332659	0.666055
476	N	0.412984	0.350845	0.667895
477	C	0.381223	0.345574	0.669263
478	N	0.372558	0.32149	0.669008
479	C	0.393673	0.302935	0.667282
480	N	0.424394	0.309253	0.6658
481	C	0.032259	0.092255	0.669471
482	N	0.031578	0.067384	0.670007
483	C	0.003603	0.054573	0.67003
484	N	0.475811	0.067582	0.669558
485	C	0.475418	0.092433	0.668974
486	N	0.003886	0.103668	0.668951
487	C	0.473696	0.913384	0.672632
488	N	0.474305	0.938263	0.671951
489	C	0.502366	0.950897	0.671743
490	N	0.030258	0.938074	0.671965
491	C	0.030582	0.913214	0.672608
492	N	0.502094	0.901969	0.672963
493	C	0.281917	0.592285	0.668331
494	N	0.281208	0.567417	0.669269
495	C	0.253227	0.554617	0.669511
496	N	0.225441	0.567633	0.668961
497	C	0.225056	0.59248	0.668009
498	N	0.253542	0.603707	0.667694
499	C	0.223323	0.413437	0.672186
500	N	0.223939	0.438314	0.671623
501	C	0.252003	0.450946	0.671509
502	N	0.279896	0.43812	0.671737
503	C	0.28023	0.41326	0.672273
504	N	0.251728	0.402022	0.672521
505	C	0.237592	0.149108	0.670986
506	N	0.270073	0.149028	0.670553
507	C	0.28727	0.170134	0.670962
508	N	0.270808	0.19135	0.005349
509	C	0.239221	0.192747	0.005864
510	C	0.220345	0.171361	0.005085
511	H	0.225928	0.132767	0.670413
512	H	0.230013	0.209985	0.00659
513	C	0.268264	0.856635	0.666206
514	N	0.235782	0.856659	0.666487
515	C	0.218636	0.835564	0.664194
516	N	0.23513	0.814423	0.994468
517	C	0.266729	0.813091	0.993969
518	C	0.285557	0.834438	0.997267
519	H	0.279887	0.872947	0.668592
520	H	0.275993	0.795912	0.991682
521	C	0.48742	0.649396	0.672508
522	N	0.019898	0.64939	0.671918
523	C	0.037034	0.670516	0.673178
524	N	0.020527	0.691682	0.008806
525	C	0.488919	0.692997	0.00959
526	C	0.470103	0.671598	0.007508
527	H	0.475813	0.633047	0.670989
528	H	0.479629	0.710199	0.011206
529	C	0.01795	0.356341	0.666772
530	N	0.48547	0.356381	0.66695
531	C	0.468307	0.335286	0.664996
532	N	0.484803	0.314118	0.995812
533	C	0.016408	0.312761	0.99548
534	C	0.03524	0.334126	0.998283
535	H	0.029577	0.372664	0.66879
536	H	0.025686	0.295563	0.9936
537	C	0.114536	0.116485	0.003736
538	N	0.089947	0.100187	0.003557
539	C	0.059128	0.107576	0.002883
540	N	0.053697	0.132028	0.669055
541	C	0.076744	0.148991	0.669212
542	C	0.109031	0.142071	0.669963
543	H	0.137113	0.109793	0.004307
544	H	0.069696	0.166839	0.668824
545	C	0.391411	0.889211	0.003736
546	N	0.416026	0.90548	0.00439
547	C	0.446821	0.898066	0.00583
548	N	0.452203	0.87361	0.673399
549	C	0.429117	0.856671	0.672876
550	C	0.396859	0.86362	0.671059
551	H	0.368861	0.895929	0.002419
552	H	0.436119	0.838816	0.673517
553	C	0.393227	0.116495	0.668968
554	N	0.417883	0.100294	0.669102
555	C	0.448635	0.107806	0.668592
556	N	0.453998	0.132271	0.001192
557	C	0.430828	0.149159	0.000981
558	C	0.3986	0.142093	0.001665
559	H	0.370697	0.109707	0.669487
560	H	0.437692	0.167049	0.000495
561	C	0.112764	0.889163	0.670352
562	N	0.088105	0.905358	0.671096
563	C	0.057366	0.89784	0.67238
564	N	0.052015	0.873374	0.006303
565	C	0.075189	0.856491	0.005629
566	C	0.107398	0.863563	0.004038
567	H	0.13528	0.895956	0.669199
568	H	0.068332	0.838598	0.006045
569	C	0.364266	0.616449	0.003289
570	N	0.339643	0.60017	0.002975
571	C	0.308834	0.607566	0.001625
572	N	0.303453	0.632015	0.667158
573	C	0.32653	0.648953	0.667365
574	C	0.358813	0.642038	0.669005
575	H	0.386823	0.609747	0.004519
576	H	0.319486	0.666798	0.666541
577	C	0.141007	0.389233	0.003531
578	N	0.165612	0.405523	0.0041
579	C	0.196429	0.398134	0.005359
580	N	0.201836	0.373685	0.672796
581	C	0.178773	0.356736	0.67234
582	C	0.146485	0.363645	0.670795
583	H	0.118442	0.395929	0.002412
584	H	0.185828	0.338893	0.67291
585	C	0.142839	0.616579	0.668907
586	N	0.167489	0.60036	0.66881
587	C	0.198253	0.607842	0.667684
588	N	0.203627	0.632295	0.999875
589	C	0.18047	0.649193	0.999848
590	C	0.148231	0.642171	0.001263
591	H	0.120307	0.609815	0.66997
592	H	0.187378	0.667068	0.999054
593	C	0.362437	0.38916	0.670359
594	N	0.337786	0.405371	0.671013
595	C	0.307024	0.397884	0.672105
596	N	0.301657	0.373422	0.005944
597	C	0.32482	0.356525	0.005355
598	C	0.357055	0.363559	0.003966
599	H	0.384966	0.395934	0.66936
600	H	0.317923	0.338643	0.005705
601	C	0.159055	0.247154	0.671894
602	N	0.150429	0.27101	0.67121
603	C	0.11963	0.277892	0.668968
604	N	0.097073	0.26013	0.000793
605	C	0.104216	0.235975	0.0014
606	C	0.136082	0.228245	0.003647
607	H	0.182701	0.24336	0.673607
608	H	0.086054	0.223662	8.3e-05
609	C	0.401269	0.76967	0.673362
610	N	0.40828	0.745497	0.674237
611	C	0.385778	0.727797	0.670406
612	N	0.355175	0.73476	0.998712
613	C	0.34669	0.758639	0.997552
614	C	0.369607	0.777485	0.001578
615	H	0.419368	0.781932	0.676624
616	H	0.323195	0.762503	0.99365
617	C	0.401615	0.236203	0.999493
618	N	0.408311	0.260446	0.999114
619	C	0.385446	0.277973	0.000747
620	N	0.354779	0.270703	0.669544
621	C	0.346586	0.24674	0.67
622	C	0.369903	0.22808	0.668351
623	H	0.420015	0.224103	0.998155
624	H	0.323011	0.242662	0.671676
625	C	0.159063	0.758874	0.998675
626	N	0.150732	0.73494	0.999439
627	C	0.120038	0.727773	0.002064
628	N	0.097286	0.745376	0.67056
629	C	0.104124	0.769594	0.669933
630	C	0.135869	0.777611	0.667292
631	H	0.182652	0.762877	0.996731
632	H	0.085802	0.781752	0.671529
633	C	0.974816	0.014692	0.003752
634	N	0.975273	0.989867	0.00414
635	C	0.002657	0.976793	0.004596
636	N	0.030356	0.989487	0.671364
637	C	0.031443	0.014303	0.671002
638	C	0.0033	0.028393	0.670496
639	H	0.953249	0.023139	0.003399
640	H	0.053205	0.02245	0.671096
641	C	0.224436	0.514738	0.003464
642	N	0.224897	0.489913	0.003893
643	C	0.252282	0.476842	0.004404
644	N	0.279979	0.489536	0.67118
645	C	0.281061	0.514351	0.670771
646	C	0.252919	0.528439	0.670191
647	H	0.202868	0.523183	0.003038
648	H	0.302825	0.5225	0.670848
649	C	0.686888	0.17368	0.004804
650	N	0.664926	0.155296	0.004267
651	C	0.633041	0.160205	0.003681
652	N	0.624021	0.184206	0.003518
653	C	0.644673	0.203097	0.004039
654	N	0.675405	0.196816	0.004658
655	C	0.819003	0.83212	0.998789
656	N	0.84097	0.850469	0.000924
657	C	0.872821	0.845519	0.002894
658	N	0.881791	0.821505	0.003013
659	C	0.861125	0.80265	0.001035
660	N	0.830443	0.808975	0.99897
661	C	0.820464	0.172761	0.003463
662	N	0.842675	0.154647	0.002826
663	C	0.874392	0.160045	0.00193
664	N	0.8829	0.184171	0.001554
665	C	0.861793	0.202807	0.002111
666	N	0.831152	0.196157	0.003096
667	C	0.685457	0.832885	0.998822
668	N	0.663294	0.851002	0.000917
669	C	0.631591	0.845618	0.002513
670	N	0.623066	0.821501	0.002292
671	C	0.644119	0.802858	0.000361
672	N	0.674765	0.809483	0.998615
673	C	0.936636	0.673845	0.006512
674	N	0.914742	0.65539	0.004972
675	C	0.882822	0.660184	0.003331
676	N	0.873674	0.684147	0.002954
677	C	0.894355	0.702949	0.004456
678	N	0.925129	0.696986	0.00622
679	C	0.568691	0.331831	0.999647
680	N	0.590575	0.350286	0.001296
681	C	0.622488	0.345494	0.002957
682	N	0.631641	0.321534	0.003209
683	C	0.61097	0.302727	0.001762
684	N	0.580184	0.308681	0.999986
685	C	0.570219	0.673158	0.005058
686	N	0.592316	0.654939	0.003666
687	C	0.624075	0.660175	0.00203
688	N	0.632766	0.684248	0.001531
689	C	0.611687	0.702836	0.002751
690	N	0.580952	0.696564	0.004578
691	C	0.93511	0.332659	0.999389
692	N	0.912984	0.350845	0.001229
693	C	0.881223	0.345574	0.002597
694	N	0.872558	0.32149	0.002342
695	C	0.893673	0.302935	0.000612
696	N	0.924394	0.309253	0.999134
697	C	0.532259	0.092255	0.002801
698	N	0.531579	0.067384	0.003341
699	C	0.503603	0.054573	0.003362
700	N	0.975811	0.067582	0.00289
701	C	0.975418	0.092433	0.002309
702	N	0.503887	0.103668	0.002285
703	C	0.973696	0.913384	0.005966
704	N	0.974304	0.938263	0.005284
705	C	0.002366	0.950897	0.005075
706	N	0.530257	0.938074	0.005298
707	C	0.530582	0.913214	0.005942
708	N	0.002094	0.901969	0.006295
709	C	0.781919	0.592285	0.001665
710	N	0.781208	0.567417	0.002604
711	C	0.753227	0.554617	0.002844
712	N	0.725443	0.567633	0.002295
713	C	0.725057	0.59248	0.001343
714	N	0.753542	0.603707	0.001028
715	C	0.723323	0.413437	0.005518
716	N	0.723939	0.438314	0.004955
717	C	0.752003	0.450946	0.00484
718	N	0.779898	0.43812	0.005068
719	C	0.78023	0.41326	0.005607
720	N	0.751728	0.402022	0.005855
721	C	0.737592	0.149108	0.004317
722	N	0.770073	0.149028	0.003885
723	C	0.78727	0.170134	0.004293
724	N	0.770807	0.19135	0.338684
725	C	0.739221	0.192747	0.339197
726	C	0.720345	0.171361	0.338419
727	H	0.725928	0.132767	0.003746
728	H	0.730014	0.209985	0.339924
729	C	0.768263	0.856635	0.99954
730	N	0.735782	0.856659	0.999821
731	C	0.718635	0.835564	0.997525
732	N	0.735131	0.814423	0.327801
733	C	0.766729	0.813091	0.327301
734	C	0.785557	0.834438	0.330599
735	H	0.779887	0.872947	0.001923
736	H	0.775992	0.795912	0.325017
737	C	0.987422	0.649396	0.00584
738	N	0.519899	0.64939	0.005249
739	C	0.537034	0.670516	0.00651
740	N	0.520527	0.691682	0.34214
741	C	0.988919	0.692997	0.342924
742	C	0.970102	0.671598	0.340843
743	H	0.975813	0.633047	0.004321
744	H	0.979629	0.710199	0.34454
745	C	0.51795	0.356341	0.000106
746	N	0.98547	0.356381	0.000284
747	C	0.968307	0.335286	0.99833
748	N	0.984802	0.314118	0.329145
749	C	0.516408	0.312761	0.328814
750	C	0.535239	0.334126	0.331614
751	H	0.529577	0.372664	0.002124
752	H	0.525686	0.295563	0.326932
753	C	0.614537	0.116485	0.337068
754	N	0.589948	0.100187	0.336891
755	C	0.559129	0.107576	0.336217
756	N	0.553698	0.132028	0.002386
757	C	0.576745	0.148991	0.002547
758	C	0.60903	0.142071	0.003296
759	H	0.637113	0.109793	0.337642
760	H	0.569696	0.166839	0.002158
761	C	0.891411	0.889211	0.337068
762	N	0.916026	0.90548	0.337722
763	C	0.946821	0.898066	0.339163
764	N	0.952202	0.87361	0.006733
765	C	0.929117	0.856671	0.006208
766	C	0.896858	0.86362	0.004392
767	H	0.868861	0.895929	0.335751
768	H	0.936119	0.838816	0.006849
769	C	0.893227	0.116495	0.002302
770	N	0.917883	0.100294	0.002436
771	C	0.948635	0.107806	0.001926
772	N	0.954	0.132271	0.334527
773	C	0.930828	0.149159	0.334315
774	C	0.898602	0.142093	0.334997
775	H	0.870697	0.109707	0.002821
776	H	0.937694	0.167049	0.333827
777	C	0.612763	0.889163	0.003684
778	N	0.588105	0.905358	0.00443
779	C	0.557367	0.89784	0.005712
780	N	0.552016	0.873374	0.339636
781	C	0.575189	0.856491	0.338962
782	C	0.607398	0.863563	0.337373
783	H	0.635279	0.895956	0.00253
784	H	0.568331	0.838598	0.339378
785	C	0.864266	0.616449	0.336623
786	N	0.839643	0.60017	0.336307
787	C	0.808834	0.607566	0.334956
788	N	0.803452	0.632015	0.000492
789	C	0.82653	0.648953	0.0007
790	C	0.858813	0.642038	0.002339
791	H	0.886822	0.609747	0.337853
792	H	0.819488	0.666798	0.999875
793	C	0.641007	0.389233	0.336864
794	N	0.665612	0.405523	0.337434
795	C	0.696429	0.398134	0.338691
796	N	0.701837	0.373685	0.006129
797	C	0.678773	0.356736	0.005673
798	C	0.646485	0.363645	0.004128
799	H	0.618443	0.395929	0.335744
800	H	0.685829	0.338893	0.006242
801	C	0.64284	0.616579	0.002238
802	N	0.667488	0.60036	0.002144
803	C	0.698253	0.607842	0.001018
804	N	0.703627	0.632295	0.333207
805	C	0.680471	0.649193	0.333182
806	C	0.648231	0.642171	0.334595
807	H	0.620307	0.609815	0.003303
808	H	0.687378	0.667068	0.332387
809	C	0.862437	0.38916	0.003692
810	N	0.837786	0.405371	0.004344
811	C	0.807024	0.397884	0.005439
812	N	0.801657	0.373422	0.339277
813	C	0.82482	0.356525	0.338691
814	C	0.857055	0.363559	0.3373
815	H	0.884965	0.395934	0.002694
816	H	0.817923	0.338643	0.339039
817	C	0.659056	0.247154	0.005227
818	N	0.650429	0.27101	0.004545
819	C	0.61963	0.277892	0.002302
820	N	0.597073	0.26013	0.334126
821	C	0.604217	0.235975	0.334733
822	C	0.636082	0.228245	0.336981
823	H	0.6827	0.24336	0.006939
824	H	0.586054	0.223662	0.333416
825	C	0.901269	0.76967	0.006694
826	N	0.90828	0.745497	0.00757
827	C	0.885778	0.727797	0.003738
828	N	0.855177	0.73476	0.332045
829	C	0.846692	0.758639	0.330884
830	C	0.869607	0.777485	0.334912
831	H	0.919368	0.781932	0.009958
832	H	0.823195	0.762503	0.326984
833	C	0.901615	0.236203	0.332826
834	N	0.908311	0.260446	0.332448
835	C	0.885446	0.277973	0.334079
836	N	0.854779	0.270703	0.002877
837	C	0.846588	0.24674	0.003334
838	C	0.869903	0.22808	0.001685
839	H	0.920015	0.224103	0.331488
840	H	0.82301	0.242662	0.00501
841	C	0.659063	0.758874	0.332006
842	N	0.650732	0.73494	0.332773
843	C	0.620039	0.727773	0.335396
844	N	0.597286	0.745376	0.003891
845	C	0.604124	0.769594	0.003264
846	C	0.635869	0.777611	0.000626
847	H	0.682653	0.762877	0.330063
848	H	0.585803	0.781752	0.004862
849	C	0.474816	0.014692	0.337085
850	N	0.475273	0.989867	0.337474
851	C	0.502658	0.976793	0.33793
852	N	0.530357	0.989487	0.004697
853	C	0.531444	0.014303	0.004334
854	C	0.503299	0.028393	0.00383
855	H	0.453249	0.023139	0.336733
856	H	0.553205	0.02245	0.00443
857	C	0.724436	0.514738	0.336797
858	N	0.724898	0.489913	0.337226
859	C	0.752284	0.476842	0.337739
860	N	0.779979	0.489536	0.004511
861	C	0.781064	0.514351	0.004105
862	C	0.752919	0.528439	0.003524
863	H	0.702869	0.523183	0.336371
864	H	0.802825	0.5225	0.00418
865	C	0.686888	0.17368	0.338138
866	N	0.664926	0.155296	0.337601
867	C	0.633041	0.160205	0.337015
868	N	0.624021	0.184206	0.33685
869	C	0.644673	0.203097	0.337373
870	N	0.675405	0.196816	0.337994
871	C	0.819003	0.83212	0.332123
872	N	0.84097	0.850469	0.334258
873	C	0.872821	0.845519	0.336227
874	N	0.881791	0.821505	0.336348
875	C	0.861125	0.80265	0.334369
876	N	0.830443	0.808975	0.332302
877	C	0.820464	0.172761	0.336797
878	N	0.842675	0.154647	0.33616
879	C	0.874392	0.160045	0.335262
880	N	0.8829	0.184171	0.334886
881	C	0.861793	0.202807	0.335443
882	N	0.831152	0.196157	0.336431
883	C	0.685457	0.832885	0.332154
884	N	0.663294	0.851002	0.334249
885	C	0.631591	0.845618	0.335845
886	N	0.623066	0.821501	0.335624
887	C	0.644119	0.802858	0.333694
888	N	0.674765	0.809483	0.331947
889	C	0.936636	0.673845	0.339847
890	N	0.914742	0.65539	0.338305
891	C	0.882822	0.660184	0.336666
892	N	0.873674	0.684147	0.336287
893	C	0.894355	0.702949	0.337789
894	N	0.925129	0.696986	0.339552
895	C	0.568691	0.331831	0.332978
896	N	0.590575	0.350286	0.334631
897	C	0.622488	0.345494	0.336291
898	N	0.631641	0.321534	0.336542
899	C	0.61097	0.302727	0.335094
900	N	0.580184	0.308681	0.333318
901	C	0.570219	0.673158	0.338392
902	N	0.592316	0.654939	0.337001
903	C	0.624075	0.660175	0.335362
904	N	0.632766	0.684248	0.334863
905	C	0.611687	0.702836	0.336083
906	N	0.580952	0.696564	0.337913
907	C	0.93511	0.332659	0.33272
908	N	0.912984	0.350845	0.334561
909	C	0.881223	0.345574	0.335932
910	N	0.872558	0.32149	0.335674
911	C	0.893673	0.302935	0.333947
912	N	0.924394	0.309253	0.332465
913	C	0.532259	0.092255	0.336136
914	N	0.531579	0.067384	0.336673
915	C	0.503603	0.054573	0.336696
916	N	0.975811	0.067582	0.336224
917	C	0.975418	0.092433	0.33564
918	N	0.503887	0.103668	0.335617
919	C	0.973696	0.913384	0.339301
920	N	0.974304	0.938263	0.338617
921	C	0.002366	0.950897	0.338409
922	N	0.530257	0.938074	0.33863
923	C	0.530582	0.913214	0.339274
924	N	0.002094	0.901969	0.339629
925	C	0.781919	0.592285	0.334996
926	N	0.781208	0.567417	0.335935
927	C	0.753227	0.554617	0.336177
928	N	0.725443	0.567633	0.335627
929	C	0.725057	0.59248	0.334674
930	N	0.753542	0.603707	0.33436
931	C	0.723323	0.413437	0.338852
932	N	0.723939	0.438314	0.338288
933	C	0.752003	0.450946	0.338175
934	N	0.779898	0.43812	0.338402
935	C	0.78023	0.41326	0.338942
936	N	0.751728	0.402022	0.33919
937	C	0.737592	0.149108	0.337652
938	N	0.770073	0.149028	0.337219
939	C	0.78727	0.170134	0.337628
940	N	0.770807	0.19135	0.672018
941	C	0.739221	0.192747	0.672531
942	C	0.720345	0.171361	0.671753
943	H	0.725928	0.132767	0.337082
944	H	0.730014	0.209985	0.673258
945	C	0.768263	0.856635	0.332871
946	N	0.735782	0.856659	0.333155
947	C	0.718635	0.835564	0.330859
948	N	0.735131	0.814423	0.661134
949	C	0.766729	0.813091	0.660634
950	C	0.785557	0.834438	0.663933
951	H	0.779887	0.872947	0.335258
952	H	0.775992	0.795912	0.658352
953	C	0.987422	0.649396	0.339173
954	N	0.519899	0.64939	0.338583
955	C	0.537034	0.670516	0.339844
956	N	0.520527	0.691682	0.675474
957	C	0.988919	0.692997	0.676259
958	C	0.970102	0.671598	0.674177
959	H	0.975813	0.633047	0.337655
960	H	0.979629	0.710199	0.677874
961	C	0.51795	0.356341	0.333438
962	N	0.98547	0.356381	0.333615
963	C	0.968307	0.335286	0.331661
964	N	0.984802	0.314118	0.662478
965	C	0.516408	0.312761	0.66215
966	C	0.535239	0.334126	0.664949
967	H	0.529577	0.372664	0.335459
968	H	0.525686	0.295563	0.660266
969	C	0.614537	0.116485	0.670402
970	N	0.589948	0.100187	0.670225
971	C	0.559129	0.107576	0.669551
972	N	0.553698	0.132028	0.335721
973	C	0.576745	0.148991	0.335878
974	C	0.60903	0.142071	0.336629
975	H	0.637113	0.109793	0.670976
976	H	0.569696	0.166839	0.33549
977	C	0.891411	0.889211	0.670402
978	N	0.916026	0.90548	0.671056
979	C	0.946821	0.898066	0.672497
980	N	0.952202	0.87361	0.340068
981	C	0.929117	0.856671	0.339542
982	C	0.896858	0.86362	0.337725
983	H	0.868861	0.895929	0.669085
984	H	0.936119	0.838816	0.340182
985	C	0.893227	0.116495	0.335634
986	N	0.917883	0.100294	0.335768
987	C	0.948635	0.107806	0.335258
988	N	0.954	0.132271	0.667862
989	C	0.930828	0.149159	0.667647
990	C	0.898602	0.142093	0.668331
991	H	0.870697	0.109707	0.336153
992	H	0.937694	0.167049	0.667161
993	C	0.612763	0.889163	0.337018
994	N	0.588105	0.905358	0.337766
995	C	0.557367	0.89784	0.339046
996	N	0.552016	0.873374	0.67297
997	C	0.575189	0.856491	0.672296
998	C	0.607398	0.863563	0.670704
999	H	0.635279	0.895956	0.335865
1000	H	0.568331	0.838598	0.672712
1001	C	0.864266	0.616449	0.669957
1002	N	0.839643	0.60017	0.669642
1003	C	0.808834	0.607566	0.668291
1004	N	0.803452	0.632015	0.333824
1005	C	0.82653	0.648953	0.334033
1006	C	0.858813	0.642038	0.335671
1007	H	0.886822	0.609747	0.671187
1008	H	0.819488	0.666798	0.333206
1009	C	0.641007	0.389233	0.670198
1010	N	0.665612	0.405523	0.670768
1011	C	0.696429	0.398134	0.672025
1012	N	0.701837	0.373685	0.339462
1013	C	0.678773	0.356736	0.339006
1014	C	0.646485	0.363645	0.337461
1015	H	0.618443	0.395929	0.669078
1016	H	0.685829	0.338893	0.339576
1017	C	0.64284	0.616579	0.335573
1018	N	0.667488	0.60036	0.335479
1019	C	0.698253	0.607842	0.334351
1020	N	0.703627	0.632295	0.666541
1021	C	0.680471	0.649193	0.666514
1022	C	0.648231	0.642171	0.667929
1023	H	0.620307	0.609815	0.336636
1024	H	0.687378	0.667068	0.66572
1025	C	0.862437	0.38916	0.337025
1026	N	0.837786	0.405371	0.337678
1027	C	0.807024	0.397884	0.338775
1028	N	0.801657	0.373422	0.672611
1029	C	0.82482	0.356525	0.672022
1030	C	0.857055	0.363559	0.670634
1031	H	0.884965	0.395934	0.336026
1032	H	0.817923	0.338643	0.672373
1033	C	0.659056	0.247154	0.33856
1034	N	0.650429	0.27101	0.33788
1035	C	0.61963	0.277892	0.335634
1036	N	0.597073	0.26013	0.667459
1037	C	0.604217	0.235975	0.668066
1038	C	0.636082	0.228245	0.670315
1039	H	0.6827	0.24336	0.340273
1040	H	0.586054	0.223662	0.666749
1041	C	0.901269	0.76967	0.340028
1042	N	0.90828	0.745497	0.340903
1043	C	0.885778	0.727797	0.337072
1044	N	0.855177	0.73476	0.665378
1045	C	0.846692	0.758639	0.664218
1046	C	0.869607	0.777485	0.668247
1047	H	0.919368	0.781932	0.34329
1048	H	0.823195	0.762503	0.660316
1049	C	0.901615	0.236203	0.666159
1050	N	0.908311	0.260446	0.66578
1051	C	0.885446	0.277973	0.667412
1052	N	0.854779	0.270703	0.33621
1053	C	0.846588	0.24674	0.336669
1054	C	0.869903	0.22808	0.335017
1055	H	0.920015	0.224103	0.664821
1056	H	0.82301	0.242662	0.338342
1057	C	0.659063	0.758874	0.665341
1058	N	0.650732	0.73494	0.666105
1059	C	0.620039	0.727773	0.66873
1060	N	0.597286	0.745376	0.337226
1061	C	0.604124	0.769594	0.336599
1062	C	0.635869	0.777611	0.333959
1063	H	0.682653	0.762877	0.663397
1064	H	0.585803	0.781752	0.338195
1065	C	0.474816	0.014692	0.670419
1066	N	0.475273	0.989867	0.670808
1067	C	0.502658	0.976793	0.671264
1068	N	0.530357	0.989487	0.33803
1069	C	0.531444	0.014303	0.337668
1070	C	0.503299	0.028393	0.337162
1071	H	0.453249	0.023139	0.670067
1072	H	0.553205	0.02245	0.337762
1073	C	0.724436	0.514738	0.670131
1074	N	0.724898	0.489913	0.67056
1075	C	0.752284	0.476842	0.67107
1076	N	0.779979	0.489536	0.337846
1077	C	0.781064	0.514351	0.33744
1078	C	0.752919	0.528439	0.336857
1079	H	0.702869	0.523183	0.669705
1080	H	0.802825	0.5225	0.337514
1081	C	0.686888	0.17368	0.671472
1082	N	0.664926	0.155296	0.670935
1083	C	0.633041	0.160205	0.670349
1084	N	0.624021	0.184206	0.670185
1085	C	0.644673	0.203097	0.670707
1086	N	0.675405	0.196816	0.671324
1087	C	0.819003	0.83212	0.665458
1088	N	0.84097	0.850469	0.66759
1089	C	0.872821	0.845519	0.669561
1090	N	0.881791	0.821505	0.669682
1091	C	0.861125	0.80265	0.667704
1092	N	0.830443	0.808975	0.665636
1093	C	0.820464	0.172761	0.670131
1094	N	0.842675	0.154647	0.669494
1095	C	0.874392	0.160045	0.668596
1096	N	0.8829	0.184171	0.66822
1097	C	0.861793	0.202807	0.668777
1098	N	0.831152	0.196157	0.669762
1099	C	0.685457	0.832885	0.665488
1100	N	0.663294	0.851002	0.667583
1101	C	0.631591	0.845618	0.669179
1102	N	0.623066	0.821501	0.668958
1103	C	0.644119	0.802858	0.667027
1104	N	0.674765	0.809483	0.66528
1105	C	0.936636	0.673845	0.673181
1106	N	0.914742	0.65539	0.671639
1107	C	0.882822	0.660184	0.669997
1108	N	0.873674	0.684147	0.669621
1109	C	0.894355	0.702949	0.671123
1110	N	0.925129	0.696986	0.672886
1111	C	0.568691	0.331831	0.666313
1112	N	0.590575	0.350286	0.667965
1113	C	0.622488	0.345494	0.669625
1114	N	0.631641	0.321534	0.669876
1115	C	0.61097	0.302727	0.668428
1116	N	0.580184	0.308681	0.666651
1117	C	0.570219	0.673158	0.671727
1118	N	0.592316	0.654939	0.670332
1119	C	0.624075	0.660175	0.668696
1120	N	0.632766	0.684248	0.668197
1121	C	0.611687	0.702836	0.669417
1122	N	0.580952	0.696564	0.671244
1123	C	0.93511	0.332659	0.666055
1124	N	0.912984	0.350845	0.667895
1125	C	0.881223	0.345574	0.669263
1126	N	0.872558	0.32149	0.669008
1127	C	0.893673	0.302935	0.667282
1128	N	0.924394	0.309253	0.6658
1129	C	0.532259	0.092255	0.669471
1130	N	0.531579	0.067384	0.670007
1131	C	0.503603	0.054573	0.67003
1132	N	0.975811	0.067582	0.669558
1133	C	0.975418	0.092433	0.668974
1134	N	0.503887	0.103668	0.668951
1135	C	0.973696	0.913384	0.672632
1136	N	0.974304	0.938263	0.671951
1137	C	0.002366	0.950897	0.671743
1138	N	0.530257	0.938074	0.671965
1139	C	0.530582	0.913214	0.672608
1140	N	0.002094	0.901969	0.672963
1141	C	0.781919	0.592285	0.668331
1142	N	0.781208	0.567417	0.669269
1143	C	0.753227	0.554617	0.669511
1144	N	0.725443	0.567633	0.668961
1145	C	0.725057	0.59248	0.668009
1146	N	0.753542	0.603707	0.667694
1147	C	0.723323	0.413437	0.672186
1148	N	0.723939	0.438314	0.671623
1149	C	0.752003	0.450946	0.671509
1150	N	0.779898	0.43812	0.671737
1151	C	0.78023	0.41326	0.672273
1152	N	0.751728	0.402022	0.672521
1153	C	0.737592	0.149108	0.670986
1154	N	0.770073	0.149028	0.670553
1155	C	0.78727	0.170134	0.670962
1156	N	0.770807	0.19135	0.005349
1157	C	0.739221	0.192747	0.005864
1158	C	0.720345	0.171361	0.005085
1159	H	0.725928	0.132767	0.670413
1160	H	0.730014	0.209985	0.00659
1161	C	0.768263	0.856635	0.666206
1162	N	0.735782	0.856659	0.666487
1163	C	0.718635	0.835564	0.664194
1164	N	0.735131	0.814423	0.994468
1165	C	0.766729	0.813091	0.993969
1166	C	0.785557	0.834438	0.997267
1167	H	0.779887	0.872947	0.668592
1168	H	0.775992	0.795912	0.991682
1169	C	0.987422	0.649396	0.672508
1170	N	0.519899	0.64939	0.671918
1171	C	0.537034	0.670516	0.673178
1172	N	0.520527	0.691682	0.008806
1173	C	0.988919	0.692997	0.00959
1174	C	0.970102	0.671598	0.007508
1175	H	0.975813	0.633047	0.670989
1176	H	0.979629	0.710199	0.011206
1177	C	0.51795	0.356341	0.666772
1178	N	0.98547	0.356381	0.66695
1179	C	0.968307	0.335286	0.664996
1180	N	0.984802	0.314118	0.995812
1181	C	0.516408	0.312761	0.99548
1182	C	0.535239	0.334126	0.998283
1183	H	0.529577	0.372664	0.66879
1184	H	0.525686	0.295563	0.9936
1185	C	0.614537	0.116485	0.003736
1186	N	0.589948	0.100187	0.003557
1187	C	0.559129	0.107576	0.002883
1188	N	0.553698	0.132028	0.669055
1189	C	0.576745	0.148991	0.669212
1190	C	0.60903	0.142071	0.669963
1191	H	0.637113	0.109793	0.004307
1192	H	0.569696	0.166839	0.668824
1193	C	0.891411	0.889211	0.003736
1194	N	0.916026	0.90548	0.00439
1195	C	0.946821	0.898066	0.00583
1196	N	0.952202	0.87361	0.673399
1197	C	0.929117	0.856671	0.672876
1198	C	0.896858	0.86362	0.671059
1199	H	0.868861	0.895929	0.002419
1200	H	0.936119	0.838816	0.673517
1201	C	0.893227	0.116495	0.668968
1202	N	0.917883	0.100294	0.669102
1203	C	0.948635	0.107806	0.668592
1204	N	0.954	0.132271	0.001192
1205	C	0.930828	0.149159	0.000981
1206	C	0.898602	0.142093	0.001665
1207	H	0.870697	0.109707	0.669487
1208	H	0.937694	0.167049	0.000495
1209	C	0.612763	0.889163	0.670352
1210	N	0.588105	0.905358	0.671096
1211	C	0.557367	0.89784	0.67238
1212	N	0.552016	0.873374	0.006303
1213	C	0.575189	0.856491	0.005629
1214	C	0.607398	0.863563	0.004038
1215	H	0.635279	0.895956	0.669199
1216	H	0.568331	0.838598	0.006045
1217	C	0.864266	0.616449	0.003289
1218	N	0.839643	0.60017	0.002975
1219	C	0.808834	0.607566	0.001625
1220	N	0.803452	0.632015	0.667158
1221	C	0.82653	0.648953	0.667365
1222	C	0.858813	0.642038	0.669005
1223	H	0.886822	0.609747	0.004519
1224	H	0.819488	0.666798	0.666541
1225	C	0.641007	0.389233	0.003531
1226	N	0.665612	0.405523	0.0041
1227	C	0.696429	0.398134	0.005359
1228	N	0.701837	0.373685	0.672796
1229	C	0.678773	0.356736	0.67234
1230	C	0.646485	0.363645	0.670795
1231	H	0.618443	0.395929	0.002412
1232	H	0.685829	0.338893	0.67291
1233	C	0.64284	0.616579	0.668907
1234	N	0.667488	0.60036	0.66881
1235	C	0.698253	0.607842	0.667684
1236	N	0.703627	0.632295	0.999875
1237	C	0.680471	0.649193	0.999848
1238	C	0.648231	0.642171	0.001263
1239	H	0.620307	0.609815	0.66997
1240	H	0.687378	0.667068	0.999054
1241	C	0.862437	0.38916	0.670359
1242	N	0.837786	0.405371	0.671013
1243	C	0.807024	0.397884	0.672105
1244	N	0.801657	0.373422	0.005944
1245	C	0.82482	0.356525	0.005355
1246	C	0.857055	0.363559	0.003966
1247	H	0.884965	0.395934	0.66936
1248	H	0.817923	0.338643	0.005705
1249	C	0.659056	0.247154	0.671894
1250	N	0.650429	0.27101	0.67121
1251	C	0.61963	0.277892	0.668968
1252	N	0.597073	0.26013	0.000793
1253	C	0.604217	0.235975	0.0014
1254	C	0.636082	0.228245	0.003647
1255	H	0.6827	0.24336	0.673607
1256	H	0.586054	0.223662	8.3e-05
1257	C	0.901269	0.76967	0.673362
1258	N	0.90828	0.745497	0.674237
1259	C	0.885778	0.727797	0.670406
1260	N	0.855177	0.73476	0.998712
1261	C	0.846692	0.758639	0.997552
1262	C	0.869607	0.777485	0.001578
1263	H	0.919368	0.781932	0.676624
1264	H	0.823195	0.762503	0.99365
1265	C	0.901615	0.236203	0.999493
1266	N	0.908311	0.260446	0.999114
1267	C	0.885446	0.277973	0.000747
1268	N	0.854779	0.270703	0.669544
1269	C	0.846588	0.24674	0.67
1270	C	0.869903	0.22808	0.668351
1271	H	0.920015	0.224103	0.998155
1272	H	0.82301	0.242662	0.671676
1273	C	0.659063	0.758874	0.998675
1274	N	0.650732	0.73494	0.999439
1275	C	0.620039	0.727773	0.002064
1276	N	0.597286	0.745376	0.67056
1277	C	0.604124	0.769594	0.669933
1278	C	0.635869	0.777611	0.667292
1279	H	0.682653	0.762877	0.996731
1280	H	0.585803	0.781752	0.671529
1281	C	0.474816	0.014692	0.003752
1282	N	0.475273	0.989867	0.00414
1283	C	0.502658	0.976793	0.004596
1284	N	0.530357	0.989487	0.671364
1285	C	0.531444	0.014303	0.671002
1286	C	0.503299	0.028393	0.670496
1287	H	0.453249	0.023139	0.003399
1288	H	0.553205	0.02245	0.671096
1289	C	0.724436	0.514738	0.003464
1290	N	0.724898	0.489913	0.003893
1291	C	0.752284	0.476842	0.004404
1292	N	0.779979	0.489536	0.67118
1293	C	0.781064	0.514351	0.670771
1294	C	0.752919	0.528439	0.670191
1295	H	0.702869	0.523183	0.003038
1296	H	0.802825	0.5225	0.670848
