data_C432H216N108O54_2018-02-15_10:36:58
#******************************************
#
# CIF file created by Zeo++
# Zeo++ is an open source package to
# analyze microporous materials
#
#*******************************************

_cell_length_a		34.1371   
_cell_length_b		33.9756   
_cell_length_c		29.8838   
_cell_angle_alpha		90   
_cell_angle_beta		90   
_cell_angle_gamma		90.2789   

_symmetry_space_group_name_H-M		'P1'
_symmetry_Int_Tables_number		1
_symmetry_cell_setting		Monoclinic

loop_
_symmetry_equiv_pos_as_xyz
'+x,+y,+z'

loop_
_atom_site_label
_atom_site_type_symbol
_atom_site_fract_x
_atom_site_fract_y
_atom_site_fract_z
1	C	0.127179	0.422714	0.999954
2	N	0.09811	0.450093	0.999719
3	C	0.059207	0.440218	0.999642
4	N	0.050223	0.401039	0.000362
5	C	0.077766	0.372274	0.001208
6	N	0.115536	0.384551	0.00084
7	C	0.872066	0.577509	0.999803
8	N	0.900886	0.549924	0.999683
9	C	0.939817	0.559463	0.00077
10	N	0.949374	0.598518	0.002255
11	C	0.921937	0.627463	0.002954
12	N	0.884038	0.615546	0.001556
13	C	0.577988	0.127778	0.001152
14	N	0.550603	0.098489	0.000717
15	C	0.560086	0.05947	0.000348
16	N	0.599015	0.050516	0.000897
17	C	0.627884	0.078265	0.001831
18	N	0.615937	0.116238	0.001797
19	C	0.421238	0.872218	0.000462
20	N	0.448769	0.90131	0.000171
21	C	0.43954	0.940344	0.000904
22	N	0.400719	0.949807	0.002198
23	C	0.371727	0.922104	0.002936
24	N	0.383398	0.884026	0.001908
25	C	0.994625	0.155032	0.008375
26	N	0.003015	0.193915	0.002896
27	C	0.040859	0.207169	0.000576
28	N	0.070255	0.18012	0.00392
29	C	0.062851	0.141168	0.009358
30	N	0.024944	0.129651	0.011764
31	C	0.004813	0.844886	0.010935
32	N	0.996528	0.805955	0.005689
33	C	0.958727	0.792604	0.003222
34	N	0.929245	0.819612	0.006101
35	C	0.936532	0.858623	0.011297
36	N	0.974412	0.870222	0.013869
37	C	0.84342	0.994213	0.009904
38	N	0.804761	0.0026	0.004461
39	C	0.791925	0.040632	0.001687
40	N	0.819188	0.070183	0.004469
41	C	0.857907	0.062779	0.009801
42	N	0.868948	0.024724	0.012601
43	C	0.156002	0.005674	0.01112
44	N	0.194665	0.997306	0.005808
45	C	0.20759	0.959284	0.00364
46	N	0.180384	0.929704	0.006867
47	C	0.141641	0.937086	0.012134
48	N	0.130532	0.975155	0.014272
49	C	0.50606	0.656169	0.992719
50	N	0.497492	0.694974	0.997949
51	C	0.459583	0.70768	0.000603
52	N	0.430335	0.680128	0.997906
53	C	0.437886	0.641247	0.992702
54	N	0.475838	0.630327	0.990002
55	C	0.493075	0.343856	0.996055
56	N	0.501693	0.305049	0.001155
57	C	0.539631	0.29234	0.003185
58	N	0.568847	0.319889	0.999883
59	C	0.561244	0.35877	0.994774
60	N	0.523259	0.369693	0.992695
61	C	0.654923	0.495184	0.992829
62	N	0.693765	0.503264	0.997906
63	C	0.707377	0.541183	0.9999
64	N	0.680674	0.570972	0.996778
65	C	0.641778	0.563899	0.991802
66	N	0.629982	0.525918	0.989741
67	C	0.344268	0.504918	0.994944
68	N	0.305406	0.496927	0.999917
69	C	0.29182	0.459043	0.002569
70	N	0.318533	0.42921	6.4e-05
71	C	0.357451	0.436227	0.995215
72	N	0.369253	0.474172	0.992491
73	C	0.969429	0.529774	0.000174
74	C	0.00933	0.538893	0.008163
75	C	0.038324	0.509533	0.007772
76	C	0.029054	0.469524	0.332467
77	C	0.989042	0.460382	0.323611
78	H	0.066535	0.517936	0.014496
79	H	0.017846	0.567172	0.014998
80	C	0.960082	0.489892	0.324686
81	H	0.931727	0.481816	0.318181
82	O	0.976462	0.423241	0.314004
83	H	0.979721	0.419915	0.281519
84	C	0.469516	0.969927	0.000298
85	C	0.461045	0.010004	0.008528
86	C	0.490754	0.038917	0.008363
87	C	0.530442	0.029381	0.333021
88	C	0.538921	0.989203	0.323874
89	H	0.482839	0.067267	0.01532
90	H	0.433039	0.018673	0.015475
91	C	0.509068	0.960314	0.324742
92	H	0.516667	0.931817	0.318051
93	O	0.575704	0.97642	0.314228
94	H	0.579069	0.979784	0.281758
95	C	0.049893	0.248252	0.332754
96	C	0.021362	0.277036	0.322751
97	C	0.030584	0.317531	0.323555
98	C	0.068618	0.331135	0.001553
99	C	0.097077	0.302244	0.012627
100	H	0.009023	0.33704	0.315309
101	H	0.993451	0.268803	0.314343
102	C	0.08783	0.261859	0.010842
103	H	0.109258	0.242329	0.019536
104	O	0.134226	0.311386	0.025767
105	H	0.132811	0.317034	0.058009
106	C	0.949822	0.751489	0.335536
107	C	0.978373	0.722768	0.325347
108	C	0.969198	0.682253	0.325967
109	C	0.9312	0.668572	0.003983
110	C	0.902784	0.69739	0.015477
111	H	0.990711	0.662786	0.317416
112	H	0.006218	0.731077	0.316752
113	C	0.911979	0.737793	0.013867
114	H	0.890566	0.757272	0.022755
115	O	0.8657	0.688154	0.028785
116	H	0.86734	0.681938	0.060876
117	C	0.75111	0.049815	0.333785
118	C	0.722064	0.02115	0.324234
119	C	0.681872	0.030586	0.324826
120	C	0.668774	0.068989	0.002155
121	C	0.697934	0.097603	0.012726
122	H	0.66219	0.008863	0.316963
123	H	0.729892	0.99297	0.316306
124	C	0.73802	0.088126	0.011179
125	H	0.757734	0.109725	0.019438
126	O	0.68933	0.13515	0.025124
127	H	0.683963	0.134288	0.057451
128	C	0.248442	0.950263	0.335744
129	C	0.277387	0.979031	0.326149
130	C	0.317616	0.969736	0.326624
131	C	0.330843	0.931364	0.003841
132	C	0.301791	0.902681	0.014609
133	H	0.337225	0.991496	0.318641
134	H	0.26946	0.00718	0.318229
135	C	0.261674	0.912017	0.013178
136	H	0.242047	0.890363	0.021528
137	O	0.310521	0.865171	0.02704
138	H	0.316314	0.866149	0.059266
139	C	0.450211	0.748631	0.001737
140	C	0.478751	0.777993	0.010484
141	C	0.46915	0.818314	0.009843
142	C	0.430677	0.831209	0.333324
143	C	0.402169	0.80174	0.323525
144	H	0.490789	0.83824	0.017146
145	H	0.506967	0.770326	0.017844
146	C	0.411835	0.761525	0.325094
147	H	0.390304	0.741573	0.317416
148	O	0.364559	0.810173	0.311913
149	H	0.364872	0.815603	0.279582
150	C	0.548997	0.251375	0.004043
151	C	0.520662	0.221957	0.013451
152	C	0.530248	0.181626	0.012345
153	C	0.568496	0.168785	0.33467
154	C	0.596773	0.198318	0.324225
155	H	0.508787	0.161643	0.020114
156	H	0.492604	0.229602	0.021592
157	C	0.587142	0.238519	0.326266
158	H	0.608492	0.258498	0.31804
159	O	0.634099	0.189991	0.311365
160	H	0.632992	0.184626	0.279041
161	C	0.748398	0.549907	0.000817
162	C	0.776948	0.521003	0.010376
163	C	0.817326	0.530071	0.009675
164	C	0.831075	0.568349	0.332296
165	C	0.802422	0.59715	0.321507
166	H	0.83666	0.508261	0.017688
167	H	0.768613	0.49293	0.018465
168	C	0.762178	0.588031	0.323133
169	H	0.742856	0.60978	0.314803
170	O	0.811669	0.634574	0.308862
171	H	0.817607	0.633403	0.276681
172	C	0.250805	0.450355	0.003028
173	C	0.222172	0.479105	0.012875
174	C	0.181792	0.470045	0.011565
175	C	0.168161	0.431959	0.333177
176	C	0.196932	0.40337	0.322017
177	H	0.162364	0.491688	0.019861
178	H	0.230459	0.507028	0.021676
179	C	0.237148	0.412433	0.324347
180	H	0.256547	0.390867	0.315646
181	O	0.187886	0.366208	0.308227
182	H	0.182171	0.368068	0.276036
183	C	0.140172	0.043859	0.349514
184	C	0.146782	0.074024	0.317809
185	C	0.122993	0.107936	0.317416
186	C	0.092195	0.112329	0.015365
187	C	0.087863	0.083685	0.049579
188	H	0.126071	0.127581	0.291675
189	H	0.166298	0.069846	0.292274
190	C	0.111431	0.049938	0.049529
191	H	0.105876	0.028584	0.072924
192	O	0.059122	0.085554	0.081167
193	H	0.067082	0.106282	0.102298
194	C	0.859212	0.956082	0.349102
195	C	0.85271	0.925462	0.317935
196	C	0.87652	0.891552	0.318314
197	C	0.907112	0.887517	0.016603
198	C	0.91124	0.916653	0.050315
199	H	0.873605	0.871582	0.292876
200	H	0.833456	0.92933	0.292078
201	C	0.887687	0.950407	0.049499
202	H	0.893141	0.972082	0.072542
203	O	0.939735	0.915149	0.082221
204	H	0.931537	0.894772	0.10367
205	C	0.956499	0.139232	0.347312
206	C	0.926164	0.146051	0.316121
207	C	0.891856	0.122618	0.316625
208	C	0.887153	0.09211	0.015116
209	C	0.916021	0.087763	0.048904
210	H	0.872135	0.125625	0.291071
211	H	0.930431	0.165287	0.290205
212	C	0.950234	0.110835	0.047842
213	H	0.971632	0.105268	0.071
214	O	0.913859	0.059354	0.081039
215	H	0.893565	0.067851	0.102241
216	C	0.042906	0.860801	0.349875
217	C	0.073434	0.853613	0.319042
218	C	0.107794	0.876965	0.319533
219	C	0.112332	0.90782	0.017617
220	C	0.083211	0.912627	0.051051
221	H	0.12778	0.873548	0.294318
222	H	0.069406	0.833916	0.293523
223	C	0.048972	0.889586	0.050025
224	H	0.027414	0.895479	0.072884
225	O	0.085179	0.941403	0.082774
226	H	0.105293	0.933118	0.104307
227	C	0.360634	0.542928	0.988981
228	C	0.353751	0.573983	0.019395
229	C	0.377571	0.608108	0.018726
230	C	0.408663	0.611834	0.320974
231	C	0.413186	0.58223	0.287905
232	H	0.374376	0.628411	0.043743
233	H	0.334054	0.570401	0.044904
234	C	0.389581	0.548299	0.288999
235	H	0.39522	0.526375	0.266391
236	O	0.441982	0.583534	0.256327
237	H	0.433962	0.603466	0.234351
238	C	0.638443	0.457077	0.987927
239	C	0.645668	0.42649	0.018855
240	C	0.621862	0.392342	0.01924
241	C	0.590398	0.388124	0.322073
242	C	0.585454	0.417219	0.288507
243	H	0.625457	0.372383	0.044542
244	H	0.665791	0.430419	0.043862
245	C	0.609047	0.451179	0.288559
246	H	0.603144	0.47273	0.265583
247	O	0.556248	0.415459	0.25745
248	H	0.563971	0.395194	0.23573
249	C	0.544166	0.640673	0.987003
250	C	0.574412	0.647342	0.018434
251	C	0.608493	0.623899	0.01806
252	C	0.613032	0.593424	0.319552
253	C	0.584212	0.5891	0.285652
254	H	0.628195	0.626895	0.043666
255	H	0.570284	0.66663	0.044293
256	C	0.55028	0.612284	0.28649
257	H	0.528871	0.606686	0.263285
258	O	0.586163	0.560608	0.25362
259	H	0.606621	0.569017	0.232478
260	C	0.454916	0.359294	0.990584
261	C	0.424983	0.353075	0.022516
262	C	0.390926	0.376566	0.022169
263	C	0.386156	0.406623	0.323197
264	C	0.414589	0.410402	0.288802
265	H	0.371589	0.374111	0.048203
266	H	0.429456	0.33432	0.0488
267	C	0.448486	0.387167	0.289596
268	H	0.469679	0.392412	0.266032
269	O	0.41234	0.438455	0.256301
270	H	0.391676	0.429766	0.235567
271	C	0.127179	0.422714	0.333287
272	N	0.09811	0.450093	0.333055
273	C	0.059207	0.440218	0.332977
274	N	0.050223	0.401039	0.333697
275	C	0.077766	0.372274	0.334543
276	N	0.115536	0.384551	0.334174
277	C	0.872066	0.577509	0.333136
278	N	0.900886	0.549924	0.333016
279	C	0.939817	0.559463	0.334104
280	N	0.949374	0.598518	0.33559
281	C	0.921937	0.627463	0.336286
282	N	0.884038	0.615546	0.334891
283	C	0.577988	0.127778	0.334484
284	N	0.550603	0.098489	0.334048
285	C	0.560086	0.05947	0.333681
286	N	0.599015	0.050516	0.334232
287	C	0.627884	0.078265	0.335162
288	N	0.615937	0.116238	0.335132
289	C	0.421238	0.872218	0.333797
290	N	0.448769	0.90131	0.333506
291	C	0.43954	0.940344	0.334237
292	N	0.400719	0.949807	0.33553
293	C	0.371727	0.922104	0.336269
294	N	0.383398	0.884026	0.335242
295	C	0.994625	0.155032	0.341707
296	N	0.003015	0.193915	0.336229
297	C	0.040859	0.207169	0.333909
298	N	0.070255	0.18012	0.337253
299	C	0.062851	0.141168	0.342691
300	N	0.024944	0.129651	0.345097
301	C	0.004813	0.844886	0.344267
302	N	0.996528	0.805955	0.339023
303	C	0.958727	0.792604	0.336557
304	N	0.929245	0.819612	0.339435
305	C	0.936532	0.858623	0.344632
306	N	0.974412	0.870222	0.347202
307	C	0.84342	0.994213	0.343236
308	N	0.804761	0.0026	0.337795
309	C	0.791925	0.040632	0.335021
310	N	0.819188	0.070183	0.337802
311	C	0.857907	0.062779	0.343133
312	N	0.868948	0.024724	0.345933
313	C	0.156002	0.005674	0.344454
314	N	0.194665	0.997306	0.33914
315	C	0.20759	0.959284	0.336972
316	N	0.180384	0.929704	0.340201
317	C	0.141641	0.937086	0.345468
318	N	0.130532	0.975155	0.347603
319	C	0.50606	0.656169	0.326054
320	N	0.497492	0.694974	0.331283
321	C	0.459583	0.70768	0.333936
322	N	0.430335	0.680128	0.331238
323	C	0.437886	0.641247	0.326037
324	N	0.475838	0.630327	0.323336
325	C	0.493075	0.343856	0.32939
326	N	0.501693	0.305049	0.334487
327	C	0.539631	0.29234	0.336517
328	N	0.568847	0.319889	0.333216
329	C	0.561244	0.35877	0.328108
330	N	0.523259	0.369693	0.326031
331	C	0.654923	0.495184	0.326162
332	N	0.693765	0.503264	0.331241
333	C	0.707377	0.541183	0.333233
334	N	0.680674	0.570972	0.33011
335	C	0.641778	0.563899	0.325134
336	N	0.629982	0.525918	0.323074
337	C	0.344268	0.504918	0.328278
338	N	0.305406	0.496927	0.33325
339	C	0.29182	0.459043	0.335901
340	N	0.318533	0.42921	0.333399
341	C	0.357451	0.436227	0.328549
342	N	0.369253	0.474172	0.325825
343	C	0.969429	0.529774	0.333507
344	C	0.00933	0.538893	0.341496
345	C	0.038324	0.509533	0.341105
346	C	0.029054	0.469524	0.665799
347	C	0.989042	0.460382	0.656945
348	H	0.066535	0.517936	0.347831
349	H	0.017846	0.567172	0.348329
350	C	0.960082	0.489892	0.658019
351	H	0.931727	0.481816	0.651514
352	O	0.976462	0.423241	0.647338
353	H	0.979721	0.419915	0.614852
354	C	0.469516	0.969927	0.333632
355	C	0.461045	0.010004	0.341861
356	C	0.490754	0.038917	0.341697
357	C	0.530442	0.029381	0.666355
358	C	0.538921	0.989203	0.657206
359	H	0.482839	0.067267	0.348654
360	H	0.433039	0.018673	0.348808
361	C	0.509068	0.960314	0.658076
362	H	0.516667	0.931817	0.651383
363	O	0.575704	0.97642	0.647562
364	H	0.579069	0.979784	0.615089
365	C	0.049893	0.248252	0.666087
366	C	0.021362	0.277036	0.656085
367	C	0.030584	0.317531	0.656888
368	C	0.068618	0.331135	0.334887
369	C	0.097077	0.302244	0.34596
370	H	0.009023	0.33704	0.648643
371	H	0.993451	0.268803	0.647676
372	C	0.08783	0.261859	0.344177
373	H	0.109258	0.242329	0.35287
374	O	0.134226	0.311386	0.359101
375	H	0.132811	0.317034	0.391343
376	C	0.949822	0.751489	0.668871
377	C	0.978373	0.722768	0.658682
378	C	0.969198	0.682253	0.659301
379	C	0.9312	0.668572	0.337317
380	C	0.902784	0.69739	0.348811
381	H	0.990711	0.662786	0.650748
382	H	0.006218	0.731077	0.650085
383	C	0.911979	0.737793	0.347198
384	H	0.890566	0.757272	0.356089
385	O	0.8657	0.688154	0.362119
386	H	0.86734	0.681938	0.39421
387	C	0.75111	0.049815	0.667118
388	C	0.722064	0.02115	0.657567
389	C	0.681872	0.030586	0.65816
390	C	0.668774	0.068989	0.33549
391	C	0.697934	0.097603	0.346061
392	H	0.66219	0.008863	0.650296
393	H	0.729892	0.99297	0.64964
394	C	0.73802	0.088126	0.344511
395	H	0.757734	0.109725	0.35277
396	O	0.68933	0.13515	0.358459
397	H	0.683963	0.134288	0.390784
398	C	0.248442	0.950263	0.669079
399	C	0.277387	0.979031	0.659481
400	C	0.317616	0.969736	0.659957
401	C	0.330843	0.931364	0.337176
402	C	0.301791	0.902681	0.347941
403	H	0.337225	0.991496	0.651972
404	H	0.26946	0.00718	0.651564
405	C	0.261674	0.912017	0.346512
406	H	0.242047	0.890363	0.354861
407	O	0.310521	0.865171	0.360373
408	H	0.316314	0.866149	0.392597
409	C	0.450211	0.748631	0.335071
410	C	0.478751	0.777993	0.343815
411	C	0.46915	0.818314	0.343176
412	C	0.430677	0.831209	0.666656
413	C	0.402169	0.80174	0.656858
414	H	0.490789	0.83824	0.350478
415	H	0.506967	0.770326	0.351177
416	C	0.411835	0.761525	0.658427
417	H	0.390304	0.741573	0.650748
418	O	0.364559	0.810173	0.645246
419	H	0.364872	0.815603	0.612914
420	C	0.548997	0.251375	0.337377
421	C	0.520662	0.221957	0.346783
422	C	0.530248	0.181626	0.345679
423	C	0.568496	0.168785	0.668004
424	C	0.596773	0.198318	0.657557
425	H	0.508787	0.161643	0.353446
426	H	0.492604	0.229602	0.354925
427	C	0.587142	0.238519	0.659598
428	H	0.608492	0.258498	0.651373
429	O	0.634099	0.189991	0.644697
430	H	0.632992	0.184626	0.612376
431	C	0.748398	0.549907	0.334151
432	C	0.776948	0.521003	0.343708
433	C	0.817326	0.530071	0.343009
434	C	0.831075	0.568349	0.665628
435	C	0.802422	0.59715	0.65484
436	H	0.83666	0.508261	0.351023
437	H	0.768613	0.49293	0.351799
438	C	0.762178	0.588031	0.656466
439	H	0.742856	0.60978	0.648137
440	O	0.811669	0.634574	0.642194
441	H	0.817607	0.633403	0.610013
442	C	0.250805	0.450355	0.336363
443	C	0.222172	0.479105	0.346208
444	C	0.181792	0.470045	0.344899
445	C	0.168161	0.431959	0.666509
446	C	0.196932	0.40337	0.655352
447	H	0.162364	0.491688	0.353195
448	H	0.230459	0.507028	0.355009
449	C	0.237148	0.412433	0.657681
450	H	0.256547	0.390867	0.648981
451	O	0.187886	0.366208	0.641559
452	H	0.182171	0.368068	0.609371
453	C	0.140172	0.043859	0.682849
454	C	0.146782	0.074024	0.651142
455	C	0.122993	0.107936	0.650748
456	C	0.092195	0.112329	0.348697
457	C	0.087863	0.083685	0.382913
458	H	0.126071	0.127581	0.625008
459	H	0.166298	0.069846	0.625607
460	C	0.111431	0.049938	0.382863
461	H	0.105876	0.028584	0.406257
462	O	0.059122	0.085554	0.414502
463	H	0.067082	0.106282	0.435631
464	C	0.859212	0.956082	0.682437
465	C	0.85271	0.925462	0.65127
466	C	0.87652	0.891552	0.651648
467	C	0.907112	0.887517	0.349936
468	C	0.91124	0.916653	0.38365
469	H	0.873605	0.871582	0.626209
470	H	0.833456	0.92933	0.625413
471	C	0.887687	0.950407	0.382833
472	H	0.893141	0.972082	0.405876
473	O	0.939735	0.915149	0.415553
474	H	0.931537	0.894772	0.437003
475	C	0.956499	0.139232	0.680647
476	C	0.926164	0.146051	0.649456
477	C	0.891856	0.122618	0.649958
478	C	0.887153	0.09211	0.34845
479	C	0.916021	0.087763	0.382237
480	H	0.872135	0.125625	0.624402
481	H	0.930431	0.165287	0.623539
482	C	0.950234	0.110835	0.381177
483	H	0.971632	0.105268	0.404333
484	O	0.913859	0.059354	0.414372
485	H	0.893565	0.067851	0.435574
486	C	0.042906	0.860801	0.683207
487	C	0.073434	0.853613	0.652374
488	C	0.107794	0.876965	0.652866
489	C	0.112332	0.90782	0.350949
490	C	0.083211	0.912627	0.384386
491	H	0.12778	0.873548	0.627651
492	H	0.069406	0.833916	0.626855
493	C	0.048972	0.889586	0.383358
494	H	0.027414	0.895479	0.406217
495	O	0.085179	0.941403	0.416109
496	H	0.105293	0.933118	0.437642
497	C	0.360634	0.542928	0.322316
498	C	0.353751	0.573983	0.35273
499	C	0.377571	0.608108	0.35206
500	C	0.408663	0.611834	0.654308
501	C	0.413186	0.58223	0.62124
502	H	0.374376	0.628411	0.377077
503	H	0.334054	0.570401	0.378235
504	C	0.389581	0.548299	0.622331
505	H	0.39522	0.526375	0.599723
506	O	0.441982	0.583534	0.589661
507	H	0.433962	0.603466	0.567686
508	C	0.638443	0.457077	0.321259
509	C	0.645668	0.42649	0.352188
510	C	0.621862	0.392342	0.352572
511	C	0.590398	0.388124	0.655406
512	C	0.585454	0.417219	0.621839
513	H	0.625457	0.372383	0.377877
514	H	0.665791	0.430419	0.377194
515	C	0.609047	0.451179	0.621892
516	H	0.603144	0.47273	0.598917
517	O	0.556248	0.415459	0.590785
518	H	0.563971	0.395194	0.569064
519	C	0.544166	0.640673	0.320338
520	C	0.574412	0.647342	0.351766
521	C	0.608493	0.623899	0.351395
522	C	0.613032	0.593424	0.652886
523	C	0.584212	0.5891	0.618984
524	H	0.628195	0.626895	0.377
525	H	0.570284	0.66663	0.377626
526	C	0.55028	0.612284	0.619824
527	H	0.528871	0.606686	0.596618
528	O	0.586163	0.560608	0.586954
529	H	0.606621	0.569017	0.565812
530	C	0.454916	0.359294	0.323916
531	C	0.424983	0.353075	0.355848
532	C	0.390926	0.376566	0.355504
533	C	0.386156	0.406623	0.65653
534	C	0.414589	0.410402	0.622137
535	H	0.371589	0.374111	0.381535
536	H	0.429456	0.33432	0.382134
537	C	0.448486	0.387167	0.62293
538	H	0.469679	0.392412	0.599365
539	O	0.41234	0.438455	0.589634
540	H	0.391676	0.429766	0.5689
541	C	0.127179	0.422714	0.666619
542	N	0.09811	0.450093	0.666388
543	C	0.059207	0.440218	0.666311
544	N	0.050223	0.401039	0.667031
545	C	0.077766	0.372274	0.667877
546	N	0.115536	0.384551	0.667506
547	C	0.872066	0.577509	0.666468
548	N	0.900886	0.549924	0.666351
549	C	0.939817	0.559463	0.667439
550	N	0.949374	0.598518	0.668921
551	C	0.921937	0.627463	0.669621
552	N	0.884038	0.615546	0.668222
553	C	0.577988	0.127778	0.667817
554	N	0.550603	0.098489	0.667382
555	C	0.560086	0.05947	0.667014
556	N	0.599015	0.050516	0.667566
557	C	0.627884	0.078265	0.668496
558	N	0.615937	0.116238	0.668466
559	C	0.421238	0.872218	0.667131
560	N	0.448769	0.90131	0.66684
561	C	0.43954	0.940344	0.667569
562	N	0.400719	0.949807	0.668864
563	C	0.371727	0.922104	0.669604
564	N	0.383398	0.884026	0.668573
565	C	0.994625	0.155032	0.675042
566	N	0.003015	0.193915	0.669564
567	C	0.040859	0.207169	0.667241
568	N	0.070255	0.18012	0.670588
569	C	0.062851	0.141168	0.676025
570	N	0.024944	0.129651	0.678431
571	C	0.004813	0.844886	0.677602
572	N	0.996528	0.805955	0.672355
573	C	0.958727	0.792604	0.669888
574	N	0.929245	0.819612	0.672766
575	C	0.936532	0.858623	0.677963
576	N	0.974412	0.870222	0.680536
577	C	0.84342	0.994213	0.676571
578	N	0.804761	0.0026	0.671126
579	C	0.791925	0.040632	0.668356
580	N	0.819188	0.070183	0.671136
581	C	0.857907	0.062779	0.676467
582	N	0.868948	0.024724	0.679268
583	C	0.156002	0.005674	0.677786
584	N	0.194665	0.997306	0.672475
585	C	0.20759	0.959284	0.670307
586	N	0.180384	0.929704	0.673532
587	C	0.141641	0.937086	0.6788
588	N	0.130532	0.975155	0.680938
589	C	0.50606	0.656169	0.659388
590	N	0.497492	0.694974	0.664618
591	C	0.459583	0.70768	0.667268
592	N	0.430335	0.680128	0.664571
593	C	0.437886	0.641247	0.659371
594	N	0.475838	0.630327	0.656667
595	C	0.493075	0.343856	0.662724
596	N	0.501693	0.305049	0.66782
597	C	0.539631	0.29234	0.669852
598	N	0.568847	0.319889	0.666549
599	C	0.561244	0.35877	0.661442
600	N	0.523259	0.369693	0.659364
601	C	0.654923	0.495184	0.659495
602	N	0.693765	0.503264	0.664574
603	C	0.707377	0.541183	0.666565
604	N	0.680674	0.570972	0.663443
605	C	0.641778	0.563899	0.658467
606	N	0.629982	0.525918	0.656406
607	C	0.344268	0.504918	0.66161
608	N	0.305406	0.496927	0.666582
609	C	0.29182	0.459043	0.669236
610	N	0.318533	0.42921	0.666733
611	C	0.357451	0.436227	0.661884
612	N	0.369253	0.474172	0.659157
613	C	0.969429	0.529774	0.66684
614	C	0.00933	0.538893	0.674831
615	C	0.038324	0.509533	0.674439
616	C	0.029054	0.469524	0.999134
617	C	0.989042	0.460382	0.990276
618	H	0.066535	0.517936	0.681162
619	H	0.017846	0.567172	0.681664
620	C	0.960082	0.489892	0.991354
621	H	0.931727	0.481816	0.984848
622	O	0.976462	0.423241	0.980669
623	H	0.979721	0.419915	0.948186
624	C	0.469516	0.969927	0.666964
625	C	0.461045	0.010004	0.675196
626	C	0.490754	0.038917	0.675028
627	C	0.530442	0.029381	0.999689
628	C	0.538921	0.989203	0.99054
629	H	0.482839	0.067267	0.681985
630	H	0.433039	0.018673	0.682142
631	C	0.509068	0.960314	0.991407
632	H	0.516667	0.931817	0.984718
633	O	0.575704	0.97642	0.980893
634	H	0.579069	0.979784	0.948424
635	C	0.049893	0.248252	0.999422
636	C	0.021362	0.277036	0.989416
637	C	0.030584	0.317531	0.990223
638	C	0.068618	0.331135	0.668219
639	C	0.097077	0.302244	0.679291
640	H	0.009023	0.33704	0.981974
641	H	0.993451	0.268803	0.98101
642	C	0.08783	0.261859	0.677508
643	H	0.109258	0.242329	0.686202
644	O	0.134226	0.311386	0.692432
645	H	0.132811	0.317034	0.724677
646	C	0.949822	0.751489	0.002203
647	C	0.978373	0.722768	0.992013
648	C	0.969198	0.682253	0.992635
649	C	0.9312	0.668572	0.670648
650	C	0.902784	0.69739	0.682142
651	H	0.990711	0.662786	0.984082
652	H	0.006218	0.731077	0.98342
653	C	0.911979	0.737793	0.680533
654	H	0.890566	0.757272	0.689421
655	O	0.8657	0.688154	0.695451
656	H	0.86734	0.681938	0.727542
657	C	0.75111	0.049815	0.000452
658	C	0.722064	0.02115	0.990902
659	C	0.681872	0.030586	0.991494
660	C	0.668774	0.068989	0.668821
661	C	0.697934	0.097603	0.679392
662	H	0.66219	0.008863	0.98363
663	H	0.729892	0.99297	0.982974
664	C	0.73802	0.088126	0.677846
665	H	0.757734	0.109725	0.686104
666	O	0.68933	0.13515	0.69179
667	H	0.683963	0.134288	0.724118
668	C	0.248442	0.950263	0.002411
669	C	0.277387	0.979031	0.992816
670	C	0.317616	0.969736	0.993291
671	C	0.330843	0.931364	0.670507
672	C	0.301791	0.902681	0.681276
673	H	0.337225	0.991496	0.985307
674	H	0.26946	0.00718	0.984895
675	C	0.261674	0.912017	0.679844
676	H	0.242047	0.890363	0.688196
677	O	0.310521	0.865171	0.693707
678	H	0.316314	0.866149	0.725932
679	C	0.450211	0.748631	0.668406
680	C	0.478751	0.777993	0.67715
681	C	0.46915	0.818314	0.676511
682	C	0.430677	0.831209	0.99999
683	C	0.402169	0.80174	0.990192
684	H	0.490789	0.83824	0.683812
685	H	0.506967	0.770326	0.684512
686	C	0.411835	0.761525	0.991759
687	H	0.390304	0.741573	0.984082
688	O	0.364559	0.810173	0.978577
689	H	0.364872	0.815603	0.946249
690	C	0.548997	0.251375	0.670708
691	C	0.520662	0.221957	0.680118
692	C	0.530248	0.181626	0.67901
693	C	0.568496	0.168785	0.001339
694	C	0.596773	0.198318	0.990892
695	H	0.508787	0.161643	0.68678
696	H	0.492604	0.229602	0.688259
697	C	0.587142	0.238519	0.992933
698	H	0.608492	0.258498	0.984705
699	O	0.634099	0.189991	0.978032
700	H	0.632992	0.184626	0.945707
701	C	0.748398	0.549907	0.667486
702	C	0.776948	0.521003	0.677043
703	C	0.817326	0.530071	0.676343
704	C	0.831075	0.568349	0.998963
705	C	0.802422	0.59715	0.988175
706	H	0.83666	0.508261	0.684354
707	H	0.768613	0.49293	0.685131
708	C	0.762178	0.588031	0.989798
709	H	0.742856	0.60978	0.981469
710	O	0.811669	0.634574	0.975529
711	H	0.817607	0.633403	0.943348
712	C	0.250805	0.450355	0.669694
713	C	0.222172	0.479105	0.679542
714	C	0.181792	0.470045	0.678231
715	C	0.168161	0.431959	0.999843
716	C	0.196932	0.40337	0.988683
717	H	0.162364	0.491688	0.686526
718	H	0.230459	0.507028	0.688343
719	C	0.237148	0.412433	0.991012
720	H	0.256547	0.390867	0.982312
721	O	0.187886	0.366208	0.974893
722	H	0.182171	0.368068	0.942702
723	C	0.140172	0.043859	0.016181
724	C	0.146782	0.074024	0.984477
725	C	0.122993	0.107936	0.984082
726	C	0.092195	0.112329	0.682032
727	C	0.087863	0.083685	0.716245
728	H	0.126071	0.127581	0.958342
729	H	0.166298	0.069846	0.958941
730	C	0.111431	0.049938	0.716194
731	H	0.105876	0.028584	0.739592
732	O	0.059122	0.085554	0.747834
733	H	0.067082	0.106282	0.768965
734	C	0.859212	0.956082	0.015769
735	C	0.85271	0.925462	0.984601
736	C	0.87652	0.891552	0.984979
737	C	0.907112	0.887517	0.68327
738	C	0.91124	0.916653	0.716981
739	H	0.873605	0.871582	0.959544
740	H	0.833456	0.92933	0.958744
741	C	0.887687	0.950407	0.716164
742	H	0.893141	0.972082	0.739207
743	O	0.939735	0.915149	0.748888
744	H	0.931537	0.894772	0.770337
745	C	0.956499	0.139232	0.01398
746	C	0.926164	0.146051	0.982787
747	C	0.891856	0.122618	0.983292
748	C	0.887153	0.09211	0.681781
749	C	0.916021	0.087763	0.715572
750	H	0.872135	0.125625	0.957737
751	H	0.930431	0.165287	0.95687
752	C	0.950234	0.110835	0.714508
753	H	0.971632	0.105268	0.737668
754	O	0.913859	0.059354	0.747706
755	H	0.893565	0.067851	0.768909
756	C	0.042906	0.860801	0.016541
757	C	0.073434	0.853613	0.985708
758	C	0.107794	0.876965	0.9862
759	C	0.112332	0.90782	0.684284
760	C	0.083211	0.912627	0.717717
761	H	0.12778	0.873548	0.960986
762	H	0.069406	0.833916	0.96019
763	C	0.048972	0.889586	0.716693
764	H	0.027414	0.895479	0.739552
765	O	0.085179	0.941403	0.74944
766	H	0.105293	0.933118	0.770973
767	C	0.360634	0.542928	0.65565
768	C	0.353751	0.573983	0.686061
769	C	0.377571	0.608108	0.685392
770	C	0.408663	0.611834	0.987639
771	C	0.413186	0.58223	0.954571
772	H	0.374376	0.628411	0.710409
773	H	0.334054	0.570401	0.71157
774	C	0.389581	0.548299	0.955665
775	H	0.39522	0.526375	0.933058
776	O	0.441982	0.583534	0.922992
777	H	0.433962	0.603466	0.901017
778	C	0.638443	0.457077	0.654592
779	C	0.645668	0.42649	0.685522
780	C	0.621862	0.392342	0.685907
781	C	0.590398	0.388124	0.98874
782	C	0.585454	0.417219	0.955173
783	H	0.625457	0.372383	0.711208
784	H	0.665791	0.430419	0.710529
785	C	0.609047	0.451179	0.955227
786	H	0.603144	0.47273	0.932248
787	O	0.556248	0.415459	0.924116
788	H	0.563971	0.395194	0.902396
789	C	0.544166	0.640673	0.653672
790	C	0.574412	0.647342	0.685101
791	C	0.608493	0.623899	0.684726
792	C	0.613032	0.593424	0.986217
793	C	0.584212	0.5891	0.952319
794	H	0.628195	0.626895	0.710332
795	H	0.570284	0.66663	0.710961
796	C	0.55028	0.612284	0.953156
797	H	0.528871	0.606686	0.929952
798	O	0.586163	0.560608	0.920285
799	H	0.606621	0.569017	0.899143
800	C	0.454916	0.359294	0.657249
801	C	0.424983	0.353075	0.689183
802	C	0.390926	0.376566	0.688835
803	C	0.386156	0.406623	0.989865
804	C	0.414589	0.410402	0.955468
805	H	0.371589	0.374111	0.714869
806	H	0.429456	0.33432	0.715465
807	C	0.448486	0.387167	0.956261
808	H	0.469679	0.392412	0.9327
809	O	0.41234	0.438455	0.922965
810	H	0.391676	0.429766	0.902235
