data_C576H216N144O288_2018-02-15_10:39:08
#******************************************
#
# CIF file created by Zeo++
# Zeo++ is an open source package to
# analyze microporous materials
#
#*******************************************

_cell_length_a		44.6289   
_cell_length_b		44.6289   
_cell_length_c		29.8314   
_cell_angle_alpha		90   
_cell_angle_beta		90   
_cell_angle_gamma		120   

_symmetry_space_group_name_H-M		'P1'
_symmetry_Int_Tables_number		1
_symmetry_cell_setting		Monoclinic

loop_
_symmetry_equiv_pos_as_xyz
'+x,+y,+z'

loop_
_atom_site_label
_atom_site_type_symbol
_atom_site_fract_x
_atom_site_fract_y
_atom_site_fract_z
1	C	0.041037	0.291003	0.307689
2	C	0.022568	0.261986	0.336186
3	C	0.041043	0.251435	0.031336
4	N	0.022469	0.301472	0.279376
5	N	0.022482	0.222405	0.059661
6	O	0.029249	0.230518	0.100248
7	O	0.029218	0.300111	0.238786
8	C	0.041037	0.291003	0.641023
9	C	0.022568	0.261986	0.66952
10	C	0.041043	0.251435	0.36467
11	N	0.022469	0.301472	0.612711
12	N	0.022482	0.222405	0.392996
13	O	0.029249	0.230518	0.43358
14	O	0.029218	0.300111	0.572119
15	C	0.041037	0.291003	0.974357
16	C	0.022568	0.261986	0.002854
17	C	0.041043	0.251435	0.698003
18	N	0.022469	0.301472	0.946041
19	N	0.022482	0.222405	0.726326
20	O	0.029249	0.230518	0.766914
21	O	0.029218	0.300111	0.905453
22	C	0.041038	0.791004	0.307689
23	C	0.022567	0.761984	0.336186
24	C	0.041044	0.751436	0.031336
25	N	0.022469	0.801472	0.279376
26	N	0.022482	0.722406	0.059661
27	O	0.029249	0.730517	0.100248
28	O	0.029217	0.800111	0.238786
29	C	0.041038	0.791004	0.641023
30	C	0.022567	0.761984	0.66952
31	C	0.041044	0.751436	0.36467
32	N	0.022469	0.801472	0.612711
33	N	0.022482	0.722406	0.392996
34	O	0.029249	0.730517	0.43358
35	O	0.029217	0.800111	0.572119
36	C	0.041038	0.791004	0.974357
37	C	0.022567	0.761984	0.002854
38	C	0.041044	0.751436	0.698003
39	N	0.022469	0.801472	0.946044
40	N	0.022482	0.722406	0.726326
41	O	0.029249	0.730517	0.766914
42	O	0.029217	0.800111	0.905453
43	O	0.029148	0.198848	0.050648
44	O	0.029147	0.331699	0.288379
45	O	0.029148	0.198848	0.383982
46	O	0.029147	0.331699	0.621711
47	O	0.029148	0.198848	0.717315
48	O	0.029147	0.331699	0.955045
49	O	0.029149	0.698848	0.050648
50	O	0.029147	0.8317	0.28838
51	O	0.029149	0.698848	0.383982
52	O	0.029147	0.8317	0.621711
53	O	0.029149	0.698848	0.717315
54	O	0.029147	0.8317	0.955045
55	C	0.096705	0.299047	0.336163
56	C	0.077687	0.309052	0.308079
57	C	0.077692	0.27003	0.030924
58	H	0.090567	0.262392	0.052281
59	H	0.090559	0.329565	0.28672
60	C	0.096705	0.299047	0.669496
61	C	0.077687	0.309052	0.641412
62	C	0.077692	0.27003	0.364257
63	H	0.090567	0.262392	0.385614
64	H	0.090559	0.329565	0.620052
65	C	0.096705	0.299047	0.002829
66	C	0.077687	0.309052	0.974746
67	C	0.077692	0.27003	0.697591
68	H	0.090567	0.262392	0.718948
69	H	0.090559	0.329565	0.953386
70	C	0.096706	0.799048	0.336163
71	C	0.077686	0.809053	0.308079
72	C	0.077691	0.770031	0.030924
73	H	0.090568	0.762393	0.052281
74	H	0.090559	0.829566	0.28672
75	C	0.096706	0.799048	0.669496
76	C	0.077686	0.809053	0.641412
77	C	0.077691	0.770031	0.364257
78	H	0.090568	0.762393	0.385614
79	H	0.090559	0.829566	0.620052
80	C	0.096706	0.799048	0.002829
81	C	0.077686	0.809053	0.974746
82	C	0.077691	0.770031	0.697591
83	H	0.090568	0.762393	0.718948
84	H	0.090559	0.829566	0.953386
85	C	0.133849	0.317622	0.002841
86	C	0.15279	0.354266	0.00283
87	C	0.189436	0.373216	0.002918
88	C	0.207133	0.354266	0.002998
89	C	0.189429	0.317624	0.002957
90	C	0.152787	0.299919	0.002887
91	H	0.233626	0.367503	0.003077
92	H	0.139542	0.273425	0.002871
93	H	0.139537	0.367506	0.002766
94	C	0.374538	0.187964	0.002944
95	C	0.355714	0.151338	0.002962
96	C	0.319092	0.132525	0.002896
97	C	0.301283	0.151339	0.002831
98	C	0.319081	0.187966	0.002871
99	C	0.355711	0.205764	0.002918
100	H	0.27477	0.138071	0.002766
101	H	0.368969	0.232275	0.00293
102	H	0.36896	0.138072	0.003014
103	C	0.207996	0.29905	0.3363
104	C	0.198037	0.270079	0.308133
105	C	0.216092	0.251486	0.307718
106	C	0.24507	0.261989	0.336277
107	C	0.25557	0.290959	0.031518
108	C	0.236973	0.309011	0.031122
109	H	0.244577	0.32949	0.05253
110	C	0.263569	0.243494	0.336263
111	C	0.290628	0.252097	0.304977
112	C	0.308839	0.233658	0.30554
113	C	0.300568	0.206478	0.00288
114	C	0.273402	0.198204	0.03358
115	C	0.254972	0.216422	0.034191
116	H	0.328054	0.239903	0.282444
117	H	0.267165	0.178983	0.056665
118	H	0.177557	0.262478	0.286727
119	N	0.228069	0.208078	0.065501
120	N	0.298967	0.279013	0.273692
121	N	0.205676	0.222508	0.279313
122	N	0.284553	0.301373	0.059913
123	O	0.203979	0.177394	0.060801
124	O	0.276368	0.29994	0.100484
125	O	0.207099	0.230697	0.238746
126	O	0.294798	0.268033	0.234091
127	O	0.239064	0.212231	0.105093
128	O	0.308121	0.331617	0.051021
129	O	0.175436	0.198935	0.288213
130	O	0.329654	0.303096	0.278386
131	C	0.208013	0.410367	0.336253
132	C	0.237213	0.429392	0.308445
133	C	0.255829	0.466042	0.308068
134	C	0.245087	0.484518	0.33625
135	C	0.215869	0.466042	0.0311
136	C	0.197838	0.429395	0.030727
137	H	0.177184	0.416528	0.051877
138	C	0.263583	0.021511	0.336247
139	C	0.255351	0.039976	0.304502
140	C	0.27377	0.076625	0.305097
141	C	0.300586	0.095512	0.0029
142	C	0.30851	0.07663	0.034048
143	C	0.290282	0.039981	0.034649
144	H	0.267786	0.089613	0.281706
145	H	0.327491	0.089622	0.057424
146	H	0.245001	0.416528	0.287296
147	N	0.298244	0.021417	0.066421
148	N	0.228824	0.021406	0.272732
149	N	0.285073	0.484603	0.280081
150	N	0.205189	0.484606	0.059085
151	O	0.328981	0.528014	0.062464
152	O	0.206242	0.477856	0.099752
153	O	0.277269	0.47785	0.239414
154	O	0.240292	0.028241	0.233347
155	O	0.293615	0.028255	0.105806
156	O	0.175031	0.977926	0.049628
157	O	0.308552	0.977926	0.28954
158	O	0.20468	0.527998	0.276686
159	C	0.485573	0.243493	0.336206
160	C	0.467097	0.21649	0.304855
161	C	0.430448	0.198267	0.305474
162	C	0.411562	0.206475	0.002933
163	C	0.43047	0.233589	0.033689
164	C	0.467118	0.252024	0.034252
165	H	0.417459	0.179092	0.282333
166	H	0.417498	0.239782	0.056849
167	N	0.485697	0.278866	0.065629
168	N	0.485652	0.208221	0.273449
169	O	0.979095	0.302962	0.061081
170	O	0.478805	0.212465	0.233898
171	O	0.478885	0.267792	0.10519
172	O	0.529148	0.198848	0.050648
173	O	0.529148	0.331699	0.288379
174	O	0.97906	0.177526	0.278004
175	C	0.133849	0.317622	0.336173
176	C	0.15279	0.354266	0.336163
177	C	0.189436	0.373216	0.33625
178	C	0.207133	0.354266	0.33633
179	C	0.189429	0.317624	0.33629
180	C	0.152787	0.299919	0.33622
181	H	0.233626	0.367503	0.336411
182	H	0.139542	0.273425	0.336203
183	H	0.139537	0.367506	0.336099
184	C	0.374538	0.187964	0.336277
185	C	0.355714	0.151338	0.336294
186	C	0.319092	0.132525	0.33623
187	C	0.301283	0.151339	0.336163
188	C	0.319081	0.187966	0.336203
189	C	0.355711	0.205764	0.33625
190	H	0.27477	0.138071	0.336099
191	H	0.368969	0.232275	0.336263
192	H	0.36896	0.138072	0.336347
193	C	0.207996	0.29905	0.669631
194	C	0.198037	0.270079	0.641466
195	C	0.216092	0.251486	0.64105
196	C	0.24507	0.261989	0.66961
197	C	0.25557	0.290959	0.364851
198	C	0.236973	0.309011	0.364455
199	H	0.244577	0.32949	0.385862
200	C	0.263569	0.243494	0.669597
201	C	0.290628	0.252097	0.638311
202	C	0.308839	0.233658	0.638874
203	C	0.300568	0.206478	0.336213
204	C	0.273402	0.198204	0.366912
205	C	0.254972	0.216422	0.367526
206	H	0.328054	0.239903	0.615778
207	H	0.267165	0.178983	0.389999
208	H	0.177557	0.262478	0.620059
209	N	0.228069	0.208078	0.398832
210	N	0.298967	0.279013	0.607025
211	N	0.205676	0.222508	0.612647
212	N	0.284553	0.301373	0.393247
213	O	0.203979	0.177394	0.394132
214	O	0.276368	0.29994	0.433818
215	O	0.207099	0.230697	0.572079
216	O	0.294798	0.268033	0.567423
217	O	0.239064	0.212231	0.438424
218	O	0.308121	0.331617	0.384354
219	O	0.175436	0.198935	0.621547
220	O	0.329654	0.303096	0.611718
221	C	0.208013	0.410367	0.669587
222	C	0.237213	0.429392	0.641777
223	C	0.255829	0.466042	0.641402
224	C	0.245087	0.484518	0.66958
225	C	0.215869	0.466042	0.364432
226	C	0.197838	0.429395	0.36406
227	H	0.177184	0.416528	0.385209
228	C	0.263583	0.021511	0.669577
229	C	0.255351	0.039976	0.637835
230	C	0.27377	0.076625	0.638429
231	C	0.300586	0.095512	0.336233
232	C	0.30851	0.07663	0.367382
233	C	0.290282	0.039981	0.367982
234	H	0.267786	0.089613	0.61504
235	H	0.327491	0.089622	0.390756
236	H	0.245001	0.416528	0.620628
237	N	0.298244	0.021417	0.399754
238	N	0.228824	0.021406	0.606067
239	N	0.285073	0.484603	0.613415
240	N	0.205189	0.484606	0.392419
241	O	0.328981	0.528014	0.395798
242	O	0.206242	0.477856	0.433084
243	O	0.277269	0.47785	0.572746
244	O	0.240292	0.028241	0.566682
245	O	0.293615	0.028255	0.439138
246	O	0.175031	0.977926	0.382963
247	O	0.308552	0.977926	0.622874
248	O	0.20468	0.527998	0.610019
249	C	0.485573	0.243493	0.66954
250	C	0.467097	0.21649	0.638187
251	C	0.430448	0.198267	0.638807
252	C	0.411562	0.206475	0.336267
253	C	0.43047	0.233589	0.367023
254	C	0.467118	0.252024	0.367586
255	H	0.417459	0.179092	0.615667
256	H	0.417498	0.239782	0.39018
257	N	0.485697	0.278866	0.398963
258	N	0.485652	0.208221	0.606781
259	O	0.979095	0.302962	0.394414
260	O	0.478805	0.212465	0.567232
261	O	0.478885	0.267792	0.438525
262	O	0.529148	0.198848	0.383982
263	O	0.529148	0.331699	0.621711
264	O	0.97906	0.177526	0.611336
265	C	0.133849	0.317622	0.669507
266	C	0.15279	0.354266	0.669496
267	C	0.189436	0.373216	0.669584
268	C	0.207133	0.354266	0.669664
269	C	0.189429	0.317624	0.669624
270	C	0.152787	0.299919	0.669553
271	H	0.233626	0.367503	0.669745
272	H	0.139542	0.273425	0.669537
273	H	0.139537	0.367506	0.669433
274	C	0.374538	0.187964	0.66961
275	C	0.355714	0.151338	0.669627
276	C	0.319092	0.132525	0.669564
277	C	0.301283	0.151339	0.669496
278	C	0.319081	0.187966	0.669537
279	C	0.355711	0.205764	0.669584
280	H	0.27477	0.138071	0.669433
281	H	0.368969	0.232275	0.669597
282	H	0.36896	0.138072	0.669681
283	C	0.207996	0.29905	0.002966
284	C	0.198037	0.270079	0.974799
285	C	0.216092	0.251486	0.974384
286	C	0.24507	0.261989	0.002945
287	C	0.25557	0.290959	0.698184
288	C	0.236973	0.309011	0.697789
289	H	0.244577	0.32949	0.719196
290	C	0.263569	0.243494	0.00293
291	C	0.290628	0.252097	0.971645
292	C	0.308839	0.233658	0.972205
293	C	0.300568	0.206478	0.669547
294	C	0.273402	0.198204	0.700246
295	C	0.254972	0.216422	0.700856
296	H	0.328054	0.239903	0.949111
297	H	0.267165	0.178983	0.723332
298	H	0.177557	0.262478	0.953392
299	N	0.228069	0.208078	0.732165
300	N	0.298967	0.279013	0.940359
301	N	0.205676	0.222508	0.945981
302	N	0.284553	0.301373	0.726581
303	O	0.203979	0.177394	0.727466
304	O	0.276368	0.29994	0.767149
305	O	0.207099	0.230697	0.905413
306	O	0.294798	0.268033	0.900756
307	O	0.239064	0.212231	0.771758
308	O	0.308121	0.331617	0.717687
309	O	0.175436	0.198935	0.954881
310	O	0.329654	0.303096	0.945052
311	C	0.208013	0.410367	0.00292
312	C	0.237213	0.429392	0.975111
313	C	0.255829	0.466042	0.974736
314	C	0.245087	0.484518	0.002916
315	C	0.215869	0.466042	0.697765
316	C	0.197838	0.429395	0.697393
317	H	0.177184	0.416528	0.718542
318	C	0.263583	0.021511	0.002912
319	C	0.255351	0.039976	0.971169
320	C	0.27377	0.076625	0.971762
321	C	0.300586	0.095512	0.669567
322	C	0.30851	0.07663	0.700715
323	C	0.290282	0.039981	0.701315
324	H	0.267786	0.089613	0.948374
325	H	0.327491	0.089622	0.72409
326	H	0.245001	0.416528	0.953962
327	N	0.298244	0.021417	0.733087
328	N	0.228824	0.021406	0.939397
329	N	0.285073	0.484603	0.946748
330	N	0.205189	0.484606	0.725749
331	O	0.328981	0.528014	0.729128
332	O	0.206242	0.477856	0.766418
333	O	0.277269	0.47785	0.90608
334	O	0.240292	0.028241	0.900012
335	O	0.293615	0.028255	0.772472
336	O	0.175031	0.977926	0.716293
337	O	0.308552	0.977926	0.956205
338	O	0.20468	0.527998	0.943352
339	C	0.485573	0.243493	0.002873
340	C	0.467097	0.21649	0.971521
341	C	0.430448	0.198267	0.972141
342	C	0.411562	0.206475	0.669597
343	C	0.43047	0.233589	0.700357
344	C	0.467118	0.252024	0.70092
345	H	0.417459	0.179092	0.948998
346	H	0.417498	0.239782	0.723513
347	N	0.485697	0.278866	0.732296
348	N	0.485652	0.208221	0.940114
349	O	0.979095	0.302962	0.727747
350	O	0.478805	0.212465	0.900565
351	O	0.478885	0.267792	0.771855
352	O	0.529148	0.198848	0.717315
353	O	0.529148	0.331699	0.955045
354	O	0.97906	0.177526	0.94467
355	C	0.133849	0.817622	0.002841
356	C	0.15279	0.854267	0.00283
357	C	0.189434	0.873214	0.002918
358	C	0.207132	0.854267	0.002998
359	C	0.189428	0.817625	0.002957
360	C	0.152787	0.79992	0.002887
361	H	0.233625	0.867504	0.003077
362	H	0.139542	0.773426	0.002871
363	H	0.139536	0.867504	0.002766
364	C	0.374537	0.687963	0.002944
365	C	0.355712	0.651337	0.002962
366	C	0.31909	0.632524	0.002896
367	C	0.301282	0.651339	0.002831
368	C	0.319082	0.687966	0.002871
369	C	0.35571	0.705764	0.002918
370	H	0.27477	0.638071	0.002766
371	H	0.368968	0.732276	0.00293
372	H	0.368959	0.638071	0.003015
373	C	0.207996	0.799051	0.3363
374	C	0.198035	0.770077	0.308133
375	C	0.216091	0.751485	0.307718
376	C	0.245068	0.761987	0.336277
377	C	0.255568	0.790957	0.031518
378	C	0.236971	0.809009	0.031122
379	H	0.244576	0.829488	0.05253
380	C	0.263568	0.743495	0.336263
381	C	0.290628	0.752098	0.304977
382	C	0.308838	0.733658	0.30554
383	C	0.300567	0.706478	0.00288
384	C	0.273402	0.698204	0.03358
385	C	0.254971	0.716421	0.034191
386	H	0.328055	0.739904	0.282444
387	H	0.267164	0.678982	0.056665
388	H	0.177556	0.762476	0.286727
389	N	0.228068	0.708077	0.0655
390	N	0.298966	0.779014	0.273692
391	N	0.205675	0.722507	0.279313
392	N	0.284551	0.801371	0.059913
393	O	0.203979	0.677394	0.0608
394	O	0.276366	0.799938	0.100484
395	O	0.207097	0.730696	0.238746
396	O	0.294798	0.768033	0.234091
397	O	0.239065	0.712232	0.105093
398	O	0.308119	0.831615	0.051021
399	O	0.175435	0.698933	0.288213
400	O	0.329654	0.803097	0.278386
401	C	0.208014	0.910368	0.336253
402	C	0.237213	0.929393	0.308445
403	C	0.255829	0.966043	0.308068
404	C	0.245085	0.984516	0.33625
405	C	0.21587	0.966043	0.0311
406	C	0.197837	0.929393	0.030727
407	H	0.177185	0.916529	0.051877
408	C	0.263582	0.521512	0.336247
409	C	0.255351	0.539975	0.304502
410	C	0.273768	0.576625	0.305096
411	C	0.300584	0.595512	0.0029
412	C	0.308509	0.57663	0.034049
413	C	0.290281	0.53998	0.03465
414	H	0.267786	0.589613	0.281706
415	H	0.32749	0.589621	0.057424
416	H	0.245	0.916526	0.287296
417	N	0.298243	0.521416	0.066422
418	N	0.228824	0.521406	0.272732
419	N	0.285072	0.984604	0.280081
420	N	0.205188	0.984607	0.059085
421	O	0.328982	0.028013	0.062463
422	O	0.206243	0.977856	0.099752
423	O	0.277267	0.977849	0.239414
424	O	0.240292	0.528241	0.233347
425	O	0.293614	0.528254	0.105806
426	O	0.17503	0.477926	0.049628
427	O	0.308552	0.477926	0.28954
428	O	0.204681	0.027999	0.276686
429	C	0.485573	0.743493	0.336206
430	C	0.467096	0.716491	0.304855
431	C	0.430448	0.698268	0.305474
432	C	0.411561	0.706476	0.002933
433	C	0.430468	0.733588	0.033689
434	C	0.467117	0.752023	0.034252
435	H	0.417459	0.679091	0.282333
436	H	0.417497	0.739782	0.056849
437	N	0.485697	0.778867	0.065629
438	N	0.485652	0.708219	0.273449
439	O	0.979095	0.802963	0.061081
440	O	0.478805	0.712465	0.233898
441	O	0.478885	0.767793	0.10519
442	O	0.529148	0.698848	0.050648
443	O	0.529147	0.8317	0.28838
444	O	0.97906	0.677526	0.278004
445	C	0.133849	0.817622	0.336173
446	C	0.15279	0.854267	0.336163
447	C	0.189434	0.873214	0.33625
448	C	0.207132	0.854267	0.33633
449	C	0.189428	0.817625	0.33629
450	C	0.152787	0.79992	0.33622
451	H	0.233625	0.867504	0.336411
452	H	0.139542	0.773426	0.336203
453	H	0.139536	0.867504	0.336099
454	C	0.374537	0.687963	0.336277
455	C	0.355712	0.651337	0.336294
456	C	0.31909	0.632524	0.33623
457	C	0.301282	0.651339	0.336163
458	C	0.319082	0.687966	0.336203
459	C	0.35571	0.705764	0.33625
460	H	0.27477	0.638071	0.336099
461	H	0.368968	0.732276	0.336263
462	H	0.368959	0.638071	0.336347
463	C	0.207996	0.799051	0.669631
464	C	0.198035	0.770077	0.641466
465	C	0.216091	0.751485	0.64105
466	C	0.245068	0.761987	0.66961
467	C	0.255568	0.790957	0.364851
468	C	0.236971	0.809009	0.364455
469	H	0.244576	0.829488	0.385862
470	C	0.263568	0.743495	0.669597
471	C	0.290628	0.752098	0.638311
472	C	0.308838	0.733658	0.638874
473	C	0.300567	0.706478	0.336213
474	C	0.273402	0.698204	0.366912
475	C	0.254971	0.716421	0.367526
476	H	0.328055	0.739904	0.615778
477	H	0.267164	0.678982	0.389999
478	H	0.177556	0.762476	0.620059
479	N	0.228068	0.708077	0.398832
480	N	0.298966	0.779014	0.607025
481	N	0.205675	0.722507	0.612647
482	N	0.284551	0.801371	0.393247
483	O	0.203979	0.677394	0.394132
484	O	0.276366	0.799938	0.433815
485	O	0.207097	0.730696	0.572079
486	O	0.294798	0.768033	0.567423
487	O	0.239065	0.712232	0.438424
488	O	0.308119	0.831615	0.384354
489	O	0.175435	0.698933	0.621547
490	O	0.329654	0.803097	0.611718
491	C	0.208014	0.910368	0.669587
492	C	0.237213	0.929393	0.641777
493	C	0.255829	0.966043	0.641402
494	C	0.245085	0.984516	0.66958
495	C	0.21587	0.966043	0.364432
496	C	0.197837	0.929393	0.36406
497	H	0.177185	0.916529	0.385209
498	C	0.263582	0.521512	0.669577
499	C	0.255351	0.539975	0.637835
500	C	0.273768	0.576625	0.638429
501	C	0.300584	0.595512	0.336233
502	C	0.308509	0.57663	0.367382
503	C	0.290281	0.53998	0.367982
504	H	0.267786	0.589613	0.61504
505	H	0.32749	0.589621	0.390756
506	H	0.245	0.916526	0.620628
507	N	0.298243	0.521416	0.399754
508	N	0.228824	0.521406	0.606063
509	N	0.285072	0.984604	0.613415
510	N	0.205188	0.984607	0.392419
511	O	0.328982	0.028013	0.395795
512	O	0.206243	0.977856	0.433084
513	O	0.277267	0.977849	0.572746
514	O	0.240292	0.528241	0.566679
515	O	0.293614	0.528254	0.439138
516	O	0.17503	0.477926	0.382963
517	O	0.308552	0.477926	0.622874
518	O	0.204681	0.027999	0.610019
519	C	0.485573	0.743493	0.66954
520	C	0.467096	0.716491	0.638187
521	C	0.430448	0.698268	0.638807
522	C	0.411561	0.706476	0.336267
523	C	0.430468	0.733588	0.367023
524	C	0.467117	0.752023	0.367586
525	H	0.417459	0.679091	0.615667
526	H	0.417497	0.739782	0.39018
527	N	0.485697	0.778867	0.398963
528	N	0.485652	0.708219	0.606781
529	O	0.979095	0.802963	0.394414
530	O	0.478805	0.712465	0.567232
531	O	0.478885	0.767793	0.438525
532	O	0.529148	0.698848	0.383982
533	O	0.529147	0.8317	0.621711
534	O	0.97906	0.677526	0.611336
535	C	0.133849	0.817622	0.669507
536	C	0.15279	0.854267	0.669496
537	C	0.189434	0.873214	0.669584
538	C	0.207132	0.854267	0.669664
539	C	0.189428	0.817625	0.669624
540	C	0.152787	0.79992	0.669553
541	H	0.233625	0.867504	0.669745
542	H	0.139542	0.773426	0.669537
543	H	0.139536	0.867504	0.669433
544	C	0.374537	0.687963	0.66961
545	C	0.355712	0.651337	0.669627
546	C	0.31909	0.632524	0.669564
547	C	0.301282	0.651339	0.669496
548	C	0.319082	0.687966	0.669537
549	C	0.35571	0.705764	0.669584
550	H	0.27477	0.638071	0.669433
551	H	0.368968	0.732276	0.669597
552	H	0.368959	0.638071	0.669681
553	C	0.207996	0.799051	0.002966
554	C	0.198035	0.770077	0.974799
555	C	0.216091	0.751485	0.974384
556	C	0.245068	0.761987	0.002945
557	C	0.255568	0.790957	0.698184
558	C	0.236971	0.809009	0.697789
559	H	0.244576	0.829488	0.719196
560	C	0.263568	0.743495	0.002929
561	C	0.290628	0.752098	0.971641
562	C	0.308838	0.733658	0.972205
563	C	0.300567	0.706478	0.669547
564	C	0.273402	0.698204	0.700246
565	C	0.254971	0.716421	0.700856
566	H	0.328055	0.739904	0.949111
567	H	0.267164	0.678982	0.723332
568	H	0.177556	0.762476	0.953392
569	N	0.228068	0.708077	0.732165
570	N	0.298966	0.779014	0.940359
571	N	0.205675	0.722507	0.945981
572	N	0.284551	0.801371	0.726581
573	O	0.203979	0.677394	0.727466
574	O	0.276366	0.799938	0.767149
575	O	0.207097	0.730696	0.905413
576	O	0.294798	0.768033	0.900756
577	O	0.239065	0.712232	0.771758
578	O	0.308119	0.831615	0.717687
579	O	0.175435	0.698933	0.954881
580	O	0.329654	0.803097	0.945052
581	C	0.208014	0.910368	0.00292
582	C	0.237213	0.929393	0.975111
583	C	0.255829	0.966043	0.974732
584	C	0.245085	0.984516	0.002916
585	C	0.21587	0.966043	0.697765
586	C	0.197837	0.929393	0.697393
587	H	0.177185	0.916529	0.718542
588	C	0.263582	0.521512	0.002912
589	C	0.255351	0.539975	0.971169
590	C	0.273768	0.576625	0.971762
591	C	0.300584	0.595512	0.669567
592	C	0.308509	0.57663	0.700715
593	C	0.290281	0.53998	0.701315
594	H	0.267786	0.589613	0.948371
595	H	0.32749	0.589621	0.72409
596	H	0.245	0.916526	0.953962
597	N	0.298243	0.521416	0.733087
598	N	0.228824	0.521406	0.939397
599	N	0.285072	0.984604	0.946748
600	N	0.205188	0.984607	0.725753
601	O	0.328982	0.028013	0.729128
602	O	0.206243	0.977856	0.766418
603	O	0.277267	0.977849	0.90608
604	O	0.240292	0.528241	0.900012
605	O	0.293614	0.528254	0.772472
606	O	0.17503	0.477926	0.716293
607	O	0.308552	0.477926	0.956208
608	O	0.204681	0.027999	0.943352
609	C	0.485573	0.743493	0.002873
610	C	0.467096	0.716491	0.971521
611	C	0.430448	0.698268	0.972141
612	C	0.411561	0.706476	0.669597
613	C	0.430468	0.733588	0.700357
614	C	0.467117	0.752023	0.70092
615	H	0.417459	0.679091	0.948998
616	H	0.417497	0.739782	0.723513
617	N	0.485697	0.778867	0.732296
618	N	0.485652	0.708219	0.940114
619	O	0.979095	0.802963	0.727747
620	O	0.478805	0.712465	0.900565
621	O	0.478885	0.767793	0.771855
622	O	0.529148	0.698848	0.717315
623	O	0.529147	0.8317	0.955045
624	O	0.97906	0.677526	0.94467
625	C	0.633848	0.317622	0.002841
626	C	0.652791	0.354266	0.00283
627	C	0.689436	0.373216	0.002918
628	C	0.707132	0.354266	0.002998
629	C	0.689428	0.317624	0.002957
630	C	0.652788	0.299919	0.002887
631	H	0.733626	0.367503	0.003077
632	H	0.639541	0.273425	0.002871
633	H	0.639536	0.367506	0.002766
634	C	0.874536	0.187964	0.002944
635	C	0.855713	0.151338	0.002962
636	C	0.81909	0.132525	0.002896
637	C	0.801282	0.151339	0.002831
638	C	0.819082	0.187966	0.002871
639	C	0.85571	0.205764	0.002918
640	H	0.774771	0.138071	0.002766
641	H	0.868968	0.232275	0.00293
642	H	0.868959	0.138072	0.003014
643	C	0.707997	0.29905	0.3363
644	C	0.698038	0.270079	0.308133
645	C	0.716091	0.251486	0.307718
646	C	0.745069	0.261989	0.336277
647	C	0.75557	0.290959	0.031518
648	C	0.736973	0.309011	0.031122
649	H	0.744577	0.32949	0.05253
650	C	0.763569	0.243494	0.336263
651	C	0.790629	0.252097	0.304977
652	C	0.808838	0.233658	0.30554
653	C	0.800567	0.206478	0.00288
654	C	0.773402	0.198204	0.03358
655	C	0.754971	0.216422	0.034191
656	H	0.828055	0.239903	0.282444
657	H	0.767164	0.178983	0.056665
658	H	0.677557	0.262478	0.286727
659	N	0.728069	0.208078	0.065501
660	N	0.798967	0.279013	0.273692
661	N	0.705676	0.222508	0.279313
662	N	0.784554	0.301373	0.059913
663	O	0.70398	0.177394	0.060801
664	O	0.776366	0.29994	0.100484
665	O	0.707099	0.230697	0.238746
666	O	0.794799	0.268033	0.234091
667	O	0.739064	0.212231	0.105093
668	O	0.80812	0.331617	0.051021
669	O	0.675437	0.198935	0.288213
670	O	0.829653	0.303096	0.278386
671	C	0.708012	0.410367	0.336253
672	C	0.737214	0.429392	0.308445
673	C	0.75583	0.466042	0.308068
674	C	0.745087	0.484518	0.33625
675	C	0.715869	0.466042	0.0311
676	C	0.697839	0.429395	0.030727
677	H	0.677184	0.416528	0.051877
678	C	0.763582	0.021511	0.336247
679	C	0.755352	0.039976	0.304502
680	C	0.773768	0.076625	0.305097
681	C	0.800584	0.095512	0.0029
682	C	0.808509	0.07663	0.034048
683	C	0.79028	0.039981	0.034649
684	H	0.767786	0.089613	0.281706
685	H	0.82749	0.089622	0.057424
686	H	0.745001	0.416528	0.287296
687	N	0.798245	0.021417	0.066421
688	N	0.728825	0.021406	0.272732
689	N	0.785073	0.484603	0.280081
690	N	0.705189	0.484606	0.059085
691	O	0.828981	0.528014	0.062464
692	O	0.706241	0.477856	0.099752
693	O	0.777269	0.47785	0.239414
694	O	0.740291	0.028241	0.233347
695	O	0.793616	0.028255	0.105806
696	O	0.67503	0.977926	0.049628
697	O	0.808551	0.977926	0.28954
698	O	0.704679	0.527998	0.276686
699	C	0.596704	0.299047	0.336163
700	C	0.577687	0.309052	0.308079
701	C	0.541036	0.291003	0.307689
702	C	0.522566	0.261986	0.336186
703	C	0.541042	0.251435	0.031336
704	C	0.577692	0.27003	0.030924
705	H	0.590566	0.262392	0.052281
706	C	0.985574	0.243493	0.336206
707	C	0.967096	0.21649	0.304855
708	C	0.930449	0.198267	0.305474
709	C	0.911561	0.206475	0.002933
710	C	0.930469	0.233589	0.033689
711	C	0.967119	0.252024	0.034252
712	H	0.91746	0.179092	0.282333
713	H	0.917497	0.239782	0.056849
714	H	0.59056	0.329565	0.28672
715	N	0.985698	0.278866	0.065629
716	N	0.985653	0.208221	0.273449
717	N	0.52247	0.301472	0.279376
718	N	0.522483	0.222405	0.059661
719	O	0.479096	0.302962	0.061081
720	O	0.529248	0.230518	0.100248
721	O	0.529217	0.300111	0.238786
722	O	0.978806	0.212465	0.233898
723	O	0.978886	0.267792	0.10519
724	O	0.479061	0.177526	0.278004
725	C	0.633848	0.317622	0.336173
726	C	0.652791	0.354266	0.336163
727	C	0.689436	0.373216	0.33625
728	C	0.707132	0.354266	0.33633
729	C	0.689428	0.317624	0.33629
730	C	0.652788	0.299919	0.33622
731	H	0.733626	0.367503	0.336411
732	H	0.639541	0.273425	0.336203
733	H	0.639536	0.367506	0.336099
734	C	0.874536	0.187964	0.336277
735	C	0.855713	0.151338	0.336294
736	C	0.81909	0.132525	0.33623
737	C	0.801282	0.151339	0.336163
738	C	0.819082	0.187966	0.336203
739	C	0.85571	0.205764	0.33625
740	H	0.774771	0.138071	0.336099
741	H	0.868968	0.232275	0.336263
742	H	0.868959	0.138072	0.336347
743	C	0.707997	0.29905	0.669631
744	C	0.698038	0.270079	0.641466
745	C	0.716091	0.251486	0.64105
746	C	0.745069	0.261989	0.66961
747	C	0.75557	0.290959	0.364851
748	C	0.736973	0.309011	0.364455
749	H	0.744577	0.32949	0.385862
750	C	0.763569	0.243494	0.669597
751	C	0.790629	0.252097	0.638311
752	C	0.808838	0.233658	0.638874
753	C	0.800567	0.206478	0.336213
754	C	0.773402	0.198204	0.366912
755	C	0.754971	0.216422	0.367526
756	H	0.828055	0.239903	0.615778
757	H	0.767164	0.178983	0.389999
758	H	0.677557	0.262478	0.620059
759	N	0.728069	0.208078	0.398832
760	N	0.798967	0.279013	0.607025
761	N	0.705676	0.222508	0.612647
762	N	0.784554	0.301373	0.393247
763	O	0.70398	0.177394	0.394132
764	O	0.776366	0.29994	0.433818
765	O	0.707099	0.230697	0.572079
766	O	0.794799	0.268033	0.567423
767	O	0.739064	0.212231	0.438424
768	O	0.80812	0.331617	0.384354
769	O	0.675437	0.198935	0.621547
770	O	0.829653	0.303096	0.611718
771	C	0.708012	0.410367	0.669587
772	C	0.737214	0.429392	0.641777
773	C	0.75583	0.466042	0.641402
774	C	0.745087	0.484518	0.66958
775	C	0.715869	0.466042	0.364432
776	C	0.697839	0.429395	0.36406
777	H	0.677184	0.416528	0.385209
778	C	0.763582	0.021511	0.669577
779	C	0.755352	0.039976	0.637835
780	C	0.773768	0.076625	0.638429
781	C	0.800584	0.095512	0.336233
782	C	0.808509	0.07663	0.367382
783	C	0.79028	0.039981	0.367982
784	H	0.767786	0.089613	0.61504
785	H	0.82749	0.089622	0.390756
786	H	0.745001	0.416528	0.620628
787	N	0.798245	0.021417	0.399754
788	N	0.728825	0.021406	0.606067
789	N	0.785073	0.484603	0.613415
790	N	0.705189	0.484606	0.392419
791	O	0.828981	0.528014	0.395798
792	O	0.706241	0.477856	0.433084
793	O	0.777269	0.47785	0.572746
794	O	0.740291	0.028241	0.566682
795	O	0.793616	0.028255	0.439138
796	O	0.67503	0.977926	0.382963
797	O	0.808551	0.977926	0.622874
798	O	0.704679	0.527998	0.610019
799	C	0.596704	0.299047	0.669496
800	C	0.577687	0.309052	0.641412
801	C	0.541036	0.291003	0.641023
802	C	0.522566	0.261986	0.66952
803	C	0.541042	0.251435	0.36467
804	C	0.577692	0.27003	0.364257
805	H	0.590566	0.262392	0.385614
806	C	0.985574	0.243493	0.66954
807	C	0.967096	0.21649	0.638187
808	C	0.930449	0.198267	0.638807
809	C	0.911561	0.206475	0.336267
810	C	0.930469	0.233589	0.367023
811	C	0.967119	0.252024	0.367586
812	H	0.91746	0.179092	0.615667
813	H	0.917497	0.239782	0.39018
814	H	0.59056	0.329565	0.620052
815	N	0.985698	0.278866	0.398963
816	N	0.985653	0.208221	0.606781
817	N	0.52247	0.301472	0.612711
818	N	0.522483	0.222405	0.392996
819	O	0.479096	0.302962	0.394414
820	O	0.529248	0.230518	0.43358
821	O	0.529217	0.300111	0.572119
822	O	0.978806	0.212465	0.567232
823	O	0.978886	0.267792	0.438525
824	O	0.479061	0.177526	0.611336
825	C	0.633848	0.317622	0.669507
826	C	0.652791	0.354266	0.669496
827	C	0.689436	0.373216	0.669584
828	C	0.707132	0.354266	0.669664
829	C	0.689428	0.317624	0.669624
830	C	0.652788	0.299919	0.669553
831	H	0.733626	0.367503	0.669745
832	H	0.639541	0.273425	0.669537
833	H	0.639536	0.367506	0.669433
834	C	0.874536	0.187964	0.66961
835	C	0.855713	0.151338	0.669627
836	C	0.81909	0.132525	0.669564
837	C	0.801282	0.151339	0.669496
838	C	0.819082	0.187966	0.669537
839	C	0.85571	0.205764	0.669584
840	H	0.774771	0.138071	0.669433
841	H	0.868968	0.232275	0.669597
842	H	0.868959	0.138072	0.669681
843	C	0.707997	0.29905	0.002966
844	C	0.698038	0.270079	0.974799
845	C	0.716091	0.251486	0.974384
846	C	0.745069	0.261989	0.002945
847	C	0.75557	0.290959	0.698184
848	C	0.736973	0.309011	0.697789
849	H	0.744577	0.32949	0.719196
850	C	0.763569	0.243494	0.00293
851	C	0.790629	0.252097	0.971645
852	C	0.808838	0.233658	0.972205
853	C	0.800567	0.206478	0.669547
854	C	0.773402	0.198204	0.700246
855	C	0.754971	0.216422	0.700856
856	H	0.828055	0.239903	0.949111
857	H	0.767164	0.178983	0.723332
858	H	0.677557	0.262478	0.953392
859	N	0.728069	0.208078	0.732165
860	N	0.798967	0.279013	0.940359
861	N	0.705676	0.222508	0.945981
862	N	0.784554	0.301373	0.726581
863	O	0.70398	0.177394	0.727466
864	O	0.776366	0.29994	0.767149
865	O	0.707099	0.230697	0.905413
866	O	0.794799	0.268033	0.900756
867	O	0.739064	0.212231	0.771758
868	O	0.80812	0.331617	0.717687
869	O	0.675437	0.198935	0.954881
870	O	0.829653	0.303096	0.945052
871	C	0.708012	0.410367	0.00292
872	C	0.737214	0.429392	0.975111
873	C	0.75583	0.466042	0.974736
874	C	0.745087	0.484518	0.002916
875	C	0.715869	0.466042	0.697765
876	C	0.697839	0.429395	0.697393
877	H	0.677184	0.416528	0.718542
878	C	0.763582	0.021511	0.002912
879	C	0.755352	0.039976	0.971169
880	C	0.773768	0.076625	0.971762
881	C	0.800584	0.095512	0.669567
882	C	0.808509	0.07663	0.700715
883	C	0.79028	0.039981	0.701315
884	H	0.767786	0.089613	0.948374
885	H	0.82749	0.089622	0.72409
886	H	0.745001	0.416528	0.953962
887	N	0.798245	0.021417	0.733087
888	N	0.728825	0.021406	0.939397
889	N	0.785073	0.484603	0.946748
890	N	0.705189	0.484606	0.725749
891	O	0.828981	0.528014	0.729128
892	O	0.706241	0.477856	0.766418
893	O	0.777269	0.47785	0.90608
894	O	0.740291	0.028241	0.900012
895	O	0.793616	0.028255	0.772472
896	O	0.67503	0.977926	0.716293
897	O	0.808551	0.977926	0.956205
898	O	0.704679	0.527998	0.943352
899	C	0.596704	0.299047	0.002829
900	C	0.577687	0.309052	0.974746
901	C	0.541036	0.291003	0.974357
902	C	0.522566	0.261986	0.002854
903	C	0.541042	0.251435	0.698003
904	C	0.577692	0.27003	0.697591
905	H	0.590566	0.262392	0.718948
906	C	0.985574	0.243493	0.002873
907	C	0.967096	0.21649	0.971521
908	C	0.930449	0.198267	0.972141
909	C	0.911561	0.206475	0.669597
910	C	0.930469	0.233589	0.700357
911	C	0.967119	0.252024	0.70092
912	H	0.91746	0.179092	0.948998
913	H	0.917497	0.239782	0.723513
914	H	0.59056	0.329565	0.953386
915	N	0.985698	0.278866	0.732296
916	N	0.985653	0.208221	0.940114
917	N	0.52247	0.301472	0.946041
918	N	0.522483	0.222405	0.726326
919	O	0.479096	0.302962	0.727747
920	O	0.529248	0.230518	0.766914
921	O	0.529217	0.300111	0.905453
922	O	0.978806	0.212465	0.900565
923	O	0.978886	0.267792	0.771855
924	O	0.479061	0.177526	0.94467
925	C	0.633848	0.817622	0.002841
926	C	0.652789	0.854267	0.00283
927	C	0.689435	0.873214	0.002918
928	C	0.707133	0.854267	0.002998
929	C	0.689428	0.817625	0.002957
930	C	0.652786	0.79992	0.002887
931	H	0.733626	0.867504	0.003077
932	H	0.639541	0.773426	0.002871
933	H	0.639535	0.867504	0.002766
934	C	0.874536	0.687963	0.002944
935	C	0.855712	0.651337	0.002962
936	C	0.81909	0.632524	0.002896
937	C	0.801282	0.651339	0.002831
938	C	0.819082	0.687966	0.002871
939	C	0.85571	0.705764	0.002918
940	H	0.774769	0.638071	0.002766
941	H	0.868969	0.732276	0.00293
942	H	0.868959	0.638071	0.003015
943	C	0.707995	0.799051	0.3363
944	C	0.698035	0.770077	0.308133
945	C	0.716091	0.751485	0.307718
946	C	0.745068	0.761987	0.336277
947	C	0.755567	0.790957	0.031518
948	C	0.736972	0.809009	0.031122
949	H	0.744576	0.829488	0.05253
950	C	0.763569	0.743495	0.336263
951	C	0.790629	0.752098	0.304977
952	C	0.808838	0.733658	0.30554
953	C	0.800567	0.706478	0.00288
954	C	0.773402	0.698204	0.03358
955	C	0.754971	0.716421	0.034191
956	H	0.828053	0.739904	0.282444
957	H	0.767164	0.678982	0.056665
958	H	0.677556	0.762476	0.286727
959	N	0.728069	0.708077	0.0655
960	N	0.798967	0.779014	0.273692
961	N	0.705675	0.722507	0.279313
962	N	0.78455	0.801371	0.059913
963	O	0.703977	0.677394	0.0608
964	O	0.776365	0.799938	0.100484
965	O	0.707096	0.730696	0.238746
966	O	0.794799	0.768033	0.234091
967	O	0.739065	0.712232	0.105093
968	O	0.80812	0.831615	0.051021
969	O	0.675434	0.698933	0.288213
970	O	0.829654	0.803097	0.278386
971	C	0.708013	0.910368	0.336253
972	C	0.737214	0.929393	0.308445
973	C	0.755828	0.966043	0.308068
974	C	0.745086	0.984516	0.33625
975	C	0.715869	0.966043	0.0311
976	C	0.697836	0.929393	0.030727
977	H	0.677184	0.916529	0.051877
978	C	0.763582	0.521512	0.336247
979	C	0.75535	0.539975	0.304502
980	C	0.773768	0.576625	0.305096
981	C	0.800584	0.595512	0.0029
982	C	0.808509	0.57663	0.034049
983	C	0.79028	0.53998	0.03465
984	H	0.767786	0.589613	0.281706
985	H	0.827489	0.589621	0.057424
986	H	0.745	0.916526	0.287296
987	N	0.798243	0.521416	0.066422
988	N	0.728823	0.521406	0.272732
989	N	0.785073	0.984604	0.280081
990	N	0.705189	0.984607	0.059085
991	O	0.82898	0.028013	0.062463
992	O	0.706242	0.977856	0.099752
993	O	0.777268	0.977849	0.239414
994	O	0.740291	0.528241	0.233347
995	O	0.793613	0.528254	0.105806
996	O	0.675029	0.477926	0.049628
997	O	0.808553	0.477926	0.28954
998	O	0.704682	0.027999	0.276686
999	C	0.596705	0.799048	0.336163
1000	C	0.577686	0.809053	0.308079
1001	C	0.541037	0.791004	0.307689
1002	C	0.522566	0.761984	0.336186
1003	C	0.541043	0.751436	0.031336
1004	C	0.577691	0.770031	0.030924
1005	H	0.590567	0.762393	0.052281
1006	C	0.985574	0.743493	0.336206
1007	C	0.967097	0.716491	0.304855
1008	C	0.930447	0.698268	0.305474
1009	C	0.911561	0.706476	0.002933
1010	C	0.930468	0.733588	0.033689
1011	C	0.967116	0.752023	0.034252
1012	H	0.91746	0.679091	0.282333
1013	H	0.917497	0.739782	0.056849
1014	H	0.590559	0.829566	0.28672
1015	N	0.985696	0.778867	0.065629
1016	N	0.985653	0.708219	0.273449
1017	N	0.522469	0.801472	0.279376
1018	N	0.522482	0.722406	0.059661
1019	O	0.479095	0.802963	0.061081
1020	O	0.529248	0.730517	0.100248
1021	O	0.529217	0.800111	0.238786
1022	O	0.978806	0.712465	0.233898
1023	O	0.978884	0.767793	0.10519
1024	O	0.47906	0.677526	0.278004
1025	C	0.633848	0.817622	0.336173
1026	C	0.652789	0.854267	0.336163
1027	C	0.689435	0.873214	0.33625
1028	C	0.707133	0.854267	0.33633
1029	C	0.689428	0.817625	0.33629
1030	C	0.652786	0.79992	0.33622
1031	H	0.733626	0.867504	0.336411
1032	H	0.639541	0.773426	0.336203
1033	H	0.639535	0.867504	0.336099
1034	C	0.874536	0.687963	0.336277
1035	C	0.855712	0.651337	0.336294
1036	C	0.81909	0.632524	0.33623
1037	C	0.801282	0.651339	0.336163
1038	C	0.819082	0.687966	0.336203
1039	C	0.85571	0.705764	0.33625
1040	H	0.774769	0.638071	0.336099
1041	H	0.868969	0.732276	0.336263
1042	H	0.868959	0.638071	0.336347
1043	C	0.707995	0.799051	0.669631
1044	C	0.698035	0.770077	0.641466
1045	C	0.716091	0.751485	0.64105
1046	C	0.745068	0.761987	0.66961
1047	C	0.755567	0.790957	0.364851
1048	C	0.736972	0.809009	0.364455
1049	H	0.744576	0.829488	0.385862
1050	C	0.763569	0.743495	0.669597
1051	C	0.790629	0.752098	0.638311
1052	C	0.808838	0.733658	0.638874
1053	C	0.800567	0.706478	0.336213
1054	C	0.773402	0.698204	0.366912
1055	C	0.754971	0.716421	0.367526
1056	H	0.828053	0.739904	0.615778
1057	H	0.767164	0.678982	0.389999
1058	H	0.677556	0.762476	0.620059
1059	N	0.728069	0.708077	0.398832
1060	N	0.798967	0.779014	0.607025
1061	N	0.705675	0.722507	0.612647
1062	N	0.78455	0.801371	0.393247
1063	O	0.703977	0.677394	0.394132
1064	O	0.776365	0.799938	0.433815
1065	O	0.707096	0.730696	0.572079
1066	O	0.794799	0.768033	0.567423
1067	O	0.739065	0.712232	0.438424
1068	O	0.80812	0.831615	0.384354
1069	O	0.675434	0.698933	0.621547
1070	O	0.829654	0.803097	0.611718
1071	C	0.708013	0.910368	0.669587
1072	C	0.737214	0.929393	0.641777
1073	C	0.755828	0.966043	0.641402
1074	C	0.745086	0.984516	0.66958
1075	C	0.715869	0.966043	0.364432
1076	C	0.697836	0.929393	0.36406
1077	H	0.677184	0.916529	0.385209
1078	C	0.763582	0.521512	0.669577
1079	C	0.75535	0.539975	0.637835
1080	C	0.773768	0.576625	0.638429
1081	C	0.800584	0.595512	0.336233
1082	C	0.808509	0.57663	0.367382
1083	C	0.79028	0.53998	0.367982
1084	H	0.767786	0.589613	0.61504
1085	H	0.827489	0.589621	0.390756
1086	H	0.745	0.916526	0.620628
1087	N	0.798243	0.521416	0.399754
1088	N	0.728823	0.521406	0.606063
1089	N	0.785073	0.984604	0.613415
1090	N	0.705189	0.984607	0.392419
1091	O	0.82898	0.028013	0.395795
1092	O	0.706242	0.977856	0.433084
1093	O	0.777268	0.977849	0.572746
1094	O	0.740291	0.528241	0.566679
1095	O	0.793613	0.528254	0.439138
1096	O	0.675029	0.477926	0.382963
1097	O	0.808553	0.477926	0.622874
1098	O	0.704682	0.027999	0.610019
1099	C	0.596705	0.799048	0.669496
1100	C	0.577686	0.809053	0.641412
1101	C	0.541037	0.791004	0.641023
1102	C	0.522566	0.761984	0.66952
1103	C	0.541043	0.751436	0.36467
1104	C	0.577691	0.770031	0.364257
1105	H	0.590567	0.762393	0.385614
1106	C	0.985574	0.743493	0.66954
1107	C	0.967097	0.716491	0.638187
1108	C	0.930447	0.698268	0.638807
1109	C	0.911561	0.706476	0.336267
1110	C	0.930468	0.733588	0.367023
1111	C	0.967116	0.752023	0.367586
1112	H	0.91746	0.679091	0.615667
1113	H	0.917497	0.739782	0.39018
1114	H	0.590559	0.829566	0.620052
1115	N	0.985696	0.778867	0.398963
1116	N	0.985653	0.708219	0.606781
1117	N	0.522469	0.801472	0.612711
1118	N	0.522482	0.722406	0.392996
1119	O	0.479095	0.802963	0.394414
1120	O	0.529248	0.730517	0.43358
1121	O	0.529217	0.800111	0.572119
1122	O	0.978806	0.712465	0.567232
1123	O	0.978884	0.767793	0.438525
1124	O	0.47906	0.677526	0.611336
1125	C	0.633848	0.817622	0.669507
1126	C	0.652789	0.854267	0.669496
1127	C	0.689435	0.873214	0.669584
1128	C	0.707133	0.854267	0.669664
1129	C	0.689428	0.817625	0.669624
1130	C	0.652786	0.79992	0.669553
1131	H	0.733626	0.867504	0.669745
1132	H	0.639541	0.773426	0.669537
1133	H	0.639535	0.867504	0.669433
1134	C	0.874536	0.687963	0.66961
1135	C	0.855712	0.651337	0.669627
1136	C	0.81909	0.632524	0.669564
1137	C	0.801282	0.651339	0.669496
1138	C	0.819082	0.687966	0.669537
1139	C	0.85571	0.705764	0.669584
1140	H	0.774769	0.638071	0.669433
1141	H	0.868969	0.732276	0.669597
1142	H	0.868959	0.638071	0.669681
1143	C	0.707995	0.799051	0.002966
1144	C	0.698035	0.770077	0.974799
1145	C	0.716091	0.751485	0.974384
1146	C	0.745068	0.761987	0.002945
1147	C	0.755567	0.790957	0.698184
1148	C	0.736972	0.809009	0.697789
1149	H	0.744576	0.829488	0.719196
1150	C	0.763569	0.743495	0.002929
1151	C	0.790629	0.752098	0.971641
1152	C	0.808838	0.733658	0.972205
1153	C	0.800567	0.706478	0.669547
1154	C	0.773402	0.698204	0.700246
1155	C	0.754971	0.716421	0.700856
1156	H	0.828053	0.739904	0.949111
1157	H	0.767164	0.678982	0.723332
1158	H	0.677556	0.762476	0.953392
1159	N	0.728069	0.708077	0.732165
1160	N	0.798967	0.779014	0.940359
1161	N	0.705675	0.722507	0.945981
1162	N	0.78455	0.801371	0.726581
1163	O	0.703977	0.677394	0.727466
1164	O	0.776365	0.799938	0.767149
1165	O	0.707096	0.730696	0.905413
1166	O	0.794799	0.768033	0.900756
1167	O	0.739065	0.712232	0.771758
1168	O	0.80812	0.831615	0.717687
1169	O	0.675434	0.698933	0.954881
1170	O	0.829654	0.803097	0.945052
1171	C	0.708013	0.910368	0.00292
1172	C	0.737214	0.929393	0.975111
1173	C	0.755828	0.966043	0.974732
1174	C	0.745086	0.984516	0.002916
1175	C	0.715869	0.966043	0.697765
1176	C	0.697836	0.929393	0.697393
1177	H	0.677184	0.916529	0.718542
1178	C	0.763582	0.521512	0.002912
1179	C	0.75535	0.539975	0.971169
1180	C	0.773768	0.576625	0.971762
1181	C	0.800584	0.595512	0.669567
1182	C	0.808509	0.57663	0.700715
1183	C	0.79028	0.53998	0.701315
1184	H	0.767786	0.589613	0.948371
1185	H	0.827489	0.589621	0.72409
1186	H	0.745	0.916526	0.953962
1187	N	0.798243	0.521416	0.733087
1188	N	0.728823	0.521406	0.939397
1189	N	0.785073	0.984604	0.946748
1190	N	0.705189	0.984607	0.725753
1191	O	0.82898	0.028013	0.729128
1192	O	0.706242	0.977856	0.766418
1193	O	0.777268	0.977849	0.90608
1194	O	0.740291	0.528241	0.900012
1195	O	0.793613	0.528254	0.772472
1196	O	0.675029	0.477926	0.716293
1197	O	0.808553	0.477926	0.956208
1198	O	0.704682	0.027999	0.943352
1199	C	0.596705	0.799048	0.002829
1200	C	0.577686	0.809053	0.974746
1201	C	0.541037	0.791004	0.974357
1202	C	0.522566	0.761984	0.002854
1203	C	0.541043	0.751436	0.698003
1204	C	0.577691	0.770031	0.697591
1205	H	0.590567	0.762393	0.718948
1206	C	0.985574	0.743493	0.002873
1207	C	0.967097	0.716491	0.971521
1208	C	0.930447	0.698268	0.972141
1209	C	0.911561	0.706476	0.669597
1210	C	0.930468	0.733588	0.700357
1211	C	0.967116	0.752023	0.70092
1212	H	0.91746	0.679091	0.948998
1213	H	0.917497	0.739782	0.723513
1214	H	0.590559	0.829566	0.953386
1215	N	0.985696	0.778867	0.732296
1216	N	0.985653	0.708219	0.940114
1217	N	0.522469	0.801472	0.946044
1218	N	0.522482	0.722406	0.726326
1219	O	0.479095	0.802963	0.727747
1220	O	0.529248	0.730517	0.766914
1221	O	0.529217	0.800111	0.905453
1222	O	0.978806	0.712465	0.900565
1223	O	0.978884	0.767793	0.771855
1224	O	0.47906	0.677526	0.94467
