data_C486H324N108_2018-02-15_10:39:54
#******************************************
#
# CIF file created by Zeo++
# Zeo++ is an open source package to
# analyze microporous materials
#
#*******************************************

_cell_length_a		34.2184   
_cell_length_b		34.06   
_cell_length_c		29.8122   
_cell_angle_alpha		90   
_cell_angle_beta		90   
_cell_angle_gamma		90.2701   

_symmetry_space_group_name_H-M		'P1'
_symmetry_Int_Tables_number		1
_symmetry_cell_setting		Monoclinic

loop_
_symmetry_equiv_pos_as_xyz
'+x,+y,+z'

loop_
_atom_site_label
_atom_site_type_symbol
_atom_site_fract_x
_atom_site_fract_y
_atom_site_fract_z
1	C	0.080208	0.373838	0.000163
2	C	0.119789	0.385435	0.996252
3	C	0.13144	0.425336	0.995081
4	C	0.10168	0.454015	0.996712
5	C	0.061442	0.443936	0.99647
6	C	0.051397	0.403548	0.998969
7	H	0.109481	0.482847	0.99969
8	H	0.022509	0.395576	0.00025
9	H	0.140737	0.364234	0.993448
10	C	0.926724	0.630168	0.007236
11	C	0.886633	0.619804	0.008405
12	C	0.873677	0.580434	0.005139
13	C	0.902211	0.550481	0.004504
14	C	0.942644	0.559421	0.003078
15	C	0.954162	0.599442	0.002917
16	H	0.893365	0.521755	0.002515
17	H	0.983149	0.60626	0.999784
18	H	0.866357	0.641495	0.012572
19	C	0.626611	0.074162	0.999731
20	C	0.615814	0.114265	0.999814
21	C	0.576293	0.126373	0.999103
22	C	0.547105	0.096822	0.999335
23	C	0.556314	0.056414	0.996826
24	C	0.596295	0.045783	0.997185
25	H	0.518573	0.104846	0.003021
26	H	0.603395	0.016797	0.994021
27	H	0.637351	0.135278	0.000707
28	C	0.369737	0.919912	0.007426
29	C	0.380477	0.879997	0.003802
30	C	0.419853	0.868141	0.999714
31	C	0.449221	0.897505	0.001025
32	C	0.439752	0.937863	0.003055
33	C	0.399818	0.948541	0.005159
34	H	0.477922	0.88943	0.99809
35	H	0.392604	0.977658	0.007166
36	H	0.359095	0.859037	0.004011
37	C	0.064763	0.144362	0.996162
38	C	0.025926	0.130965	0.990946
39	C	0.993993	0.157071	0.990026
40	C	0.001481	0.197723	0.994367
41	C	0.040175	0.212385	0.998801
42	C	0.071437	0.185161	0.000365
43	H	0.978455	0.216815	0.99385
44	H	0.099649	0.195188	0.002437
45	H	0.020702	0.101325	0.988799
46	C	0.934887	0.861861	0.003941
47	C	0.973931	0.875203	0.002434
48	C	0.005621	0.848831	0.004138
49	C	0.997662	0.808188	0.007687
50	C	0.9587	0.793666	0.007305
51	C	0.927608	0.821089	0.005989
52	H	0.020565	0.788916	0.007808
53	H	0.89923	0.811406	0.006439
54	H	0.979386	0.904821	0.000583
55	C	0.85788	0.06693	0.993502
56	C	0.870399	0.027508	0.994387
57	C	0.843665	0.995996	0.997782
58	C	0.803379	0.004352	0.001059
59	C	0.78952	0.043524	0.998731
60	C	0.817332	0.074474	0.995239
61	H	0.783892	0.981466	0.002652
62	H	0.808041	0.102963	0.993767
63	H	0.899761	0.021567	0.992975
64	C	0.141605	0.939361	0.005131
65	C	0.129378	0.978674	0.000378
66	C	0.156316	0.010157	0.999231
67	C	0.196593	0.001868	0.002833
68	C	0.210049	0.962702	0.00719
69	C	0.182049	0.931833	0.008923
70	H	0.216249	0.024619	0.001921
71	H	0.191245	0.903294	0.010671
72	H	0.100049	0.984572	0.998114
73	C	0.439199	0.638879	0.000197
74	C	0.478452	0.626871	0.004651
75	C	0.509479	0.654278	0.005638
76	C	0.500864	0.694655	0.002511
77	C	0.461742	0.70779	0.998614
78	C	0.431265	0.679431	0.996759
79	H	0.52334	0.714608	0.00345
80	H	0.402758	0.688421	0.995434
81	H	0.484621	0.597472	0.006914
82	C	0.56932	0.358083	0.016006
83	C	0.530022	0.37045	0.016682
84	C	0.498696	0.343521	0.013073
85	C	0.507277	0.303285	0.007645
86	C	0.546397	0.289634	0.008711
87	C	0.577108	0.317531	0.012635
88	H	0.484641	0.283566	0.005644
89	H	0.605546	0.308338	0.012891
90	H	0.52407	0.399892	0.018987
91	C	0.644738	0.565302	0.011262
92	C	0.6319	0.526218	0.017147
93	C	0.658413	0.494641	0.018583
94	C	0.698745	0.502642	0.014256
95	C	0.71278	0.541658	0.009357
96	C	0.685236	0.57263	0.007034
97	H	0.718028	0.479743	0.015019
98	H	0.694765	0.601086	0.00429
99	H	0.602468	0.520528	0.019296
100	C	0.362605	0.431352	0.005286
101	C	0.375561	0.470727	0.005814
102	C	0.349235	0.502377	0.002716
103	C	0.308955	0.494068	0.998107
104	C	0.294714	0.454849	0.99912
105	C	0.322089	0.423786	0.00237
106	H	0.289695	0.516984	0.996819
107	H	0.312545	0.395254	0.002743
108	H	0.40497	0.476502	0.008088
109	C	0.971303	0.529286	0.000703
110	N	0.001364	0.532703	0.304545
111	C	0.031209	0.506708	0.300179
112	C	0.031801	0.473501	0.32924
113	N	0.001124	0.469658	0.024807
114	C	0.971112	0.495489	0.028059
115	H	0.949751	0.490806	0.051407
116	C	0.059306	0.514368	0.263476
117	H	0.047744	0.535628	0.239561
118	H	0.065599	0.487377	0.245177
119	H	0.086247	0.526476	0.277198
120	C	0.469519	0.967135	0.001646
121	N	0.466359	0.997447	0.305649
122	C	0.492837	0.027143	0.301149
123	C	0.526301	0.027039	0.329559
124	N	0.529854	0.996087	0.024906
125	C	0.503492	0.966313	0.028427
126	H	0.508117	0.944469	0.051263
127	C	0.485583	0.055791	0.264865
128	H	0.463509	0.04496	0.241445
129	H	0.512338	0.061429	0.245915
130	H	0.474895	0.083091	0.279102
131	C	0.048116	0.253457	0.333963
132	N	0.07536	0.267457	0.02976
133	C	0.086906	0.305652	0.032969
134	C	0.069826	0.333245	0.002981
135	N	0.041945	0.319395	0.307708
136	C	0.030131	0.281317	0.305748
137	H	0.009876	0.2732	0.282322
138	C	0.114693	0.315637	0.069367
139	H	0.118655	0.290921	0.092233
140	H	0.103677	0.340353	0.088831
141	H	0.143252	0.323171	0.055634
142	C	0.951133	0.752462	0.34025
143	N	0.972459	0.727732	0.032958
144	C	0.967559	0.688007	0.035041
145	C	0.93787	0.6707	0.007918
146	N	0.916481	0.695597	0.315368
147	C	0.921716	0.735007	0.31365
148	H	0.904579	0.751197	0.292643
149	C	0.99153	0.666513	0.068173
150	H	0.007717	0.686713	0.089781
151	H	0.012749	0.648004	0.051127
152	H	0.972875	0.648327	0.089477
153	C	0.748546	0.051181	0.332129
154	N	0.724193	0.030563	0.026226
155	C	0.684687	0.035212	0.028725
156	C	0.667087	0.063709	0.000301
157	N	0.691611	0.084583	0.306527
158	C	0.730868	0.079697	0.304566
159	H	0.746753	0.096286	0.282548
160	C	0.663719	0.01224	0.063407
161	H	0.684102	0.996851	0.085351
162	H	0.64492	0.990265	0.047802
163	H	0.646053	0.031673	0.084192
164	C	0.250696	0.953914	0.34191
165	N	0.264175	0.926756	0.038091
166	C	0.301927	0.914589	0.041134
167	C	0.329591	0.930908	0.010602
168	N	0.316249	0.958674	0.314894
169	C	0.27863	0.971081	0.31303
170	H	0.27088	0.991293	0.289376
171	C	0.311465	0.887117	0.078005
172	H	0.287181	0.884366	0.101553
173	H	0.336867	0.897769	0.096577
174	H	0.317524	0.857936	0.064842
175	C	0.45268	0.748495	0.997866
176	N	0.425218	0.762119	0.302266
177	C	0.413084	0.800052	0.299692
178	C	0.429918	0.827654	0.329994
179	N	0.45791	0.814142	0.025158
180	C	0.470138	0.776347	0.026698
181	H	0.490613	0.768466	0.049904
182	C	0.385171	0.809852	0.263472
183	H	0.381734	0.785439	0.24006
184	H	0.395691	0.835229	0.244587
185	H	0.356451	0.816271	0.277353
186	C	0.554396	0.248729	0.006323
187	N	0.53391	0.22564	0.310813
188	C	0.538608	0.186209	0.305966
189	C	0.56682	0.167223	0.333485
190	N	0.587705	0.190566	0.028603
191	C	0.582959	0.229901	0.032677
192	H	0.599401	0.244923	0.055601
193	C	0.515119	0.167015	0.270527
194	H	0.502855	0.188566	0.247427
195	H	0.490867	0.151108	0.28578
196	H	0.533049	0.146841	0.251021
197	C	0.753555	0.55	0.007486
198	N	0.767244	0.577466	0.311665
199	C	0.805274	0.588887	0.307954
200	C	0.832995	0.571204	0.337201
201	N	0.819455	0.543138	0.032522
202	C	0.781495	0.531696	0.035227
203	H	0.773639	0.511118	0.058491
204	C	0.814944	0.61692	0.271585
205	H	0.78995	0.621553	0.249452
206	H	0.838931	0.605582	0.251325
207	H	0.823246	0.645341	0.285448
208	C	0.253745	0.447195	0.99805
209	N	0.23013	0.468501	0.304091
210	C	0.19064	0.464121	0.300744
211	C	0.172166	0.435227	0.328114
212	N	0.196008	0.413733	0.021843
213	C	0.235306	0.41826	0.024583
214	H	0.250633	0.401214	0.046523
215	C	0.17071	0.488552	0.266846
216	H	0.191623	0.502004	0.243794
217	H	0.154958	0.512122	0.283489
218	H	0.15041	0.470806	0.247085
219	C	0.141733	0.048755	0.327683
220	N	0.140709	0.073046	0.030538
221	C	0.119597	0.106909	0.032581
222	C	0.095345	0.116259	0.995414
223	N	0.095961	0.091418	0.293013
224	C	0.118645	0.059072	0.290394
225	H	0.115829	0.040874	0.263318
226	C	0.119654	0.129218	0.075134
227	H	0.138725	0.115615	0.099993
228	H	0.090151	0.13033	0.088999
229	H	0.130117	0.159052	0.069248
230	C	0.858393	0.957259	0.329842
231	N	0.86131	0.936195	0.035108
232	C	0.882547	0.902596	0.039373
233	C	0.904488	0.889877	0.001693
234	N	0.902442	0.911627	0.29688
235	C	0.879754	0.943841	0.292438
236	H	0.881041	0.959654	0.263335
237	C	0.884867	0.883717	0.083948
238	H	0.866647	0.898873	0.108439
239	H	0.915011	0.884216	0.096055
240	H	0.874885	0.85335	0.081662
241	C	0.955645	0.141471	0.319308
242	N	0.929817	0.145271	0.020366
243	C	0.895355	0.125106	0.023558
244	C	0.886672	0.096988	0.989718
245	N	0.912821	0.093071	0.288981
246	C	0.945977	0.114567	0.285077
247	H	0.964765	0.108744	0.2593
248	C	0.871461	0.130477	0.064412
249	H	0.884744	0.151894	0.087073
250	H	0.868583	0.102665	0.082355
251	H	0.842485	0.141008	0.055344
252	C	0.044116	0.864093	0.334208
253	N	0.068379	0.863497	0.037019
254	C	0.102652	0.884069	0.039856
255	C	0.112745	0.909219	0.003569
256	N	0.088098	0.909959	0.30111
257	C	0.055203	0.888012	0.297738
258	H	0.037489	0.891533	0.270444
259	C	0.12493	0.882343	0.082299
260	H	0.110856	0.862795	0.106482
261	H	0.126972	0.911548	0.09723
262	H	0.154291	0.871371	0.075925
263	C	0.364269	0.541145	0.005477
264	N	0.363765	0.565091	0.302307
265	C	0.38433	0.599433	0.299095
266	C	0.409345	0.609824	0.3353
267	N	0.409935	0.585543	0.038163
268	C	0.387942	0.552639	0.041939
269	H	0.391314	0.535146	0.069511
270	C	0.382698	0.621486	0.256422
271	H	0.363188	0.607232	0.232385
272	H	0.411775	0.623312	0.24148
273	H	0.371892	0.651081	0.262496
274	C	0.643547	0.456006	0.022761
275	N	0.645983	0.430923	0.320756
276	C	0.625864	0.396375	0.317599
277	C	0.599229	0.386921	0.352594
278	N	0.596467	0.412488	0.054164
279	C	0.618041	0.44568	0.058003
280	H	0.612929	0.464227	0.084275
281	C	0.629582	0.373383	0.275738
282	H	0.649952	0.387314	0.252399
283	H	0.601202	0.370879	0.259191
284	H	0.640435	0.34409	0.283287
285	C	0.548066	0.640282	0.010404
286	N	0.571486	0.637819	0.307009
287	C	0.605608	0.617299	0.305582
288	C	0.616289	0.59547	0.344261
289	N	0.5922	0.597278	0.047168
290	C	0.559426	0.619296	0.048935
291	H	0.541901	0.617684	0.076636
292	C	0.626915	0.615306	0.262491
293	H	0.612596	0.632892	0.236704
294	H	0.628128	0.584959	0.250733
295	H	0.656577	0.626445	0.266802
296	C	0.459936	0.357904	0.014984
297	N	0.436378	0.35587	0.311632
298	C	0.401954	0.375614	0.307369
299	C	0.39094	0.401293	0.342685
300	N	0.414789	0.403495	0.045743
301	C	0.447812	0.382273	0.050558
302	H	0.464902	0.386742	0.07822
303	C	0.380439	0.372514	0.264489
304	H	0.394902	0.352417	0.241379
305	H	0.378713	0.401278	0.248448
306	H	0.350942	0.361507	0.270606
307	C	0.080208	0.373838	0.333497
308	C	0.119789	0.385435	0.329584
309	C	0.13144	0.425336	0.328414
310	C	0.10168	0.454015	0.330046
311	C	0.061442	0.443936	0.329802
312	C	0.051397	0.403548	0.332303
313	H	0.109481	0.482847	0.333024
314	H	0.022509	0.395576	0.333583
315	H	0.140737	0.364234	0.32678
316	C	0.926724	0.630168	0.340572
317	C	0.886633	0.619804	0.341739
318	C	0.873677	0.580434	0.338472
319	C	0.902211	0.550481	0.337838
320	C	0.942644	0.559421	0.336412
321	C	0.954162	0.599442	0.336248
322	H	0.893365	0.521755	0.335845
323	H	0.983149	0.60626	0.333116
324	H	0.866357	0.641495	0.345905
325	C	0.626611	0.074162	0.333063
326	C	0.615814	0.114265	0.333146
327	C	0.576293	0.126373	0.332437
328	C	0.547105	0.096822	0.332668
329	C	0.556314	0.056414	0.330159
330	C	0.596295	0.045783	0.330516
331	H	0.518573	0.104846	0.336355
332	H	0.603395	0.016797	0.327353
333	H	0.637351	0.135278	0.334039
334	C	0.369737	0.919912	0.340759
335	C	0.380477	0.879997	0.337137
336	C	0.419853	0.868141	0.333045
337	C	0.449221	0.897505	0.334356
338	C	0.439752	0.937863	0.336389
339	C	0.399818	0.948541	0.338492
340	H	0.477922	0.88943	0.331424
341	H	0.392604	0.977658	0.340501
342	H	0.359095	0.859037	0.337345
343	C	0.064763	0.144362	0.329494
344	C	0.025926	0.130965	0.324277
345	C	0.993993	0.157071	0.323358
346	C	0.001481	0.197723	0.327699
347	C	0.040175	0.212385	0.332134
348	C	0.071437	0.185161	0.333698
349	H	0.978455	0.216815	0.327184
350	H	0.099649	0.195188	0.335772
351	H	0.020702	0.101325	0.32213
352	C	0.934887	0.861861	0.337274
353	C	0.973931	0.875203	0.335768
354	C	0.005621	0.848831	0.337472
355	C	0.997662	0.808188	0.341021
356	C	0.9587	0.793666	0.340639
357	C	0.927608	0.821089	0.339324
358	H	0.020565	0.788916	0.341142
359	H	0.89923	0.811406	0.339773
360	H	0.979386	0.904821	0.333915
361	C	0.85788	0.06693	0.326835
362	C	0.870399	0.027508	0.327719
363	C	0.843665	0.995996	0.331114
364	C	0.803379	0.004352	0.334392
365	C	0.78952	0.043524	0.332065
366	C	0.817332	0.074474	0.328573
367	H	0.783892	0.981466	0.335986
368	H	0.808041	0.102963	0.3271
369	H	0.899761	0.021567	0.326309
370	C	0.141605	0.939361	0.338465
371	C	0.129378	0.978674	0.333709
372	C	0.156316	0.010157	0.332563
373	C	0.196593	0.001868	0.336164
374	C	0.210049	0.962702	0.340525
375	C	0.182049	0.931833	0.342255
376	H	0.216249	0.024619	0.335252
377	H	0.191245	0.903294	0.344003
378	H	0.100049	0.984572	0.331445
379	C	0.439199	0.638879	0.333529
380	C	0.478452	0.626871	0.337985
381	C	0.509479	0.654278	0.338972
382	C	0.500864	0.694655	0.335845
383	C	0.461742	0.70779	0.331947
384	C	0.431265	0.679431	0.330091
385	H	0.52334	0.714608	0.336785
386	H	0.402758	0.688421	0.328766
387	H	0.484621	0.597472	0.340246
388	C	0.56932	0.358083	0.34934
389	C	0.530022	0.37045	0.350017
390	C	0.498696	0.343521	0.346405
391	C	0.507277	0.303285	0.340977
392	C	0.546397	0.289634	0.342044
393	C	0.577108	0.317531	0.345969
394	H	0.484641	0.283566	0.338978
395	H	0.605546	0.308338	0.346224
396	H	0.52407	0.399892	0.352322
397	C	0.644738	0.565302	0.344597
398	C	0.6319	0.526218	0.35048
399	C	0.658413	0.494641	0.351916
400	C	0.698745	0.502642	0.347589
401	C	0.71278	0.541658	0.342692
402	C	0.685236	0.57263	0.340367
403	H	0.718028	0.479743	0.348354
404	H	0.694765	0.601086	0.337623
405	H	0.602468	0.520528	0.35263
406	C	0.362605	0.431352	0.338619
407	C	0.375561	0.470727	0.339149
408	C	0.349235	0.502377	0.33605
409	C	0.308955	0.494068	0.331441
410	C	0.294714	0.454849	0.332454
411	C	0.322089	0.423786	0.335701
412	H	0.289695	0.516984	0.33015
413	H	0.312545	0.395254	0.336073
414	H	0.40497	0.476502	0.341424
415	C	0.971303	0.529286	0.334035
416	N	0.001364	0.532703	0.637879
417	C	0.031209	0.506708	0.633512
418	C	0.031801	0.473501	0.662574
419	N	0.001124	0.469658	0.358142
420	C	0.971112	0.495489	0.361392
421	H	0.949751	0.490806	0.384741
422	C	0.059306	0.514368	0.596809
423	H	0.047744	0.535628	0.572896
424	H	0.065599	0.487377	0.578511
425	H	0.086247	0.526476	0.610531
426	C	0.469519	0.967135	0.33498
427	N	0.466359	0.997447	0.638983
428	C	0.492837	0.027143	0.634481
429	C	0.526301	0.027039	0.662892
430	N	0.529854	0.996087	0.358239
431	C	0.503492	0.966313	0.361761
432	H	0.508117	0.944469	0.384597
433	C	0.485583	0.055791	0.598197
434	H	0.463509	0.04496	0.574777
435	H	0.512338	0.061429	0.579249
436	H	0.474895	0.083091	0.612437
437	C	0.048116	0.253457	0.667297
438	N	0.07536	0.267457	0.363093
439	C	0.086906	0.305652	0.366303
440	C	0.069826	0.333245	0.336315
441	N	0.041945	0.319395	0.641042
442	C	0.030131	0.281317	0.639083
443	H	0.009876	0.2732	0.615657
444	C	0.114693	0.315637	0.4027
445	H	0.118655	0.290921	0.425567
446	H	0.103677	0.340353	0.422166
447	H	0.143252	0.323171	0.388968
448	C	0.951133	0.752462	0.673586
449	N	0.972459	0.727732	0.366293
450	C	0.967559	0.688007	0.368376
451	C	0.93787	0.6707	0.341253
452	N	0.916481	0.695597	0.6487
453	C	0.921716	0.735007	0.646983
454	H	0.904579	0.751197	0.625978
455	C	0.99153	0.666513	0.401506
456	H	0.007717	0.686713	0.423115
457	H	0.012749	0.648004	0.38446
458	H	0.972875	0.648327	0.42281
459	C	0.748546	0.051181	0.665462
460	N	0.724193	0.030563	0.35956
461	C	0.684687	0.035212	0.362059
462	C	0.667087	0.063709	0.333632
463	N	0.691611	0.084583	0.639861
464	C	0.730868	0.079697	0.637899
465	H	0.746753	0.096286	0.615881
466	C	0.663719	0.01224	0.39674
467	H	0.684102	0.996851	0.418684
468	H	0.64492	0.990265	0.381135
469	H	0.646053	0.031673	0.417527
470	C	0.250696	0.953914	0.675243
471	N	0.264175	0.926756	0.371425
472	C	0.301927	0.914589	0.374467
473	C	0.329591	0.930908	0.343936
474	N	0.316249	0.958674	0.648227
475	C	0.27863	0.971081	0.646362
476	H	0.27088	0.991293	0.622711
477	C	0.311465	0.887117	0.411338
478	H	0.287181	0.884366	0.434885
479	H	0.336867	0.897769	0.429911
480	H	0.317524	0.857936	0.398175
481	C	0.45268	0.748495	0.331198
482	N	0.425218	0.762119	0.635598
483	C	0.413084	0.800052	0.633025
484	C	0.429918	0.827654	0.663328
485	N	0.45791	0.814142	0.35849
486	C	0.470138	0.776347	0.360033
487	H	0.490613	0.768466	0.383239
488	C	0.385171	0.809852	0.596805
489	H	0.381734	0.785439	0.573392
490	H	0.395691	0.835229	0.57792
491	H	0.356451	0.816271	0.610686
492	C	0.554396	0.248729	0.339656
493	N	0.53391	0.22564	0.644145
494	C	0.538608	0.186209	0.639301
495	C	0.56682	0.167223	0.66682
496	N	0.587705	0.190566	0.361939
497	C	0.582959	0.229901	0.366011
498	H	0.599401	0.244923	0.388934
499	C	0.515119	0.167015	0.603859
500	H	0.502855	0.188566	0.580762
501	H	0.490867	0.151108	0.619115
502	H	0.533049	0.146841	0.584354
503	C	0.753555	0.55	0.34082
504	N	0.767244	0.577466	0.644997
505	C	0.805274	0.588887	0.641287
506	C	0.832995	0.571204	0.670537
507	N	0.819455	0.543138	0.365857
508	C	0.781495	0.531696	0.36856
509	H	0.773639	0.511118	0.391826
510	C	0.814944	0.61692	0.604919
511	H	0.78995	0.621553	0.582784
512	H	0.838931	0.605582	0.584659
513	H	0.823246	0.645341	0.618783
514	C	0.253745	0.447195	0.331383
515	N	0.23013	0.468501	0.637423
516	C	0.19064	0.464121	0.634079
517	C	0.172166	0.435227	0.661447
518	N	0.196008	0.413733	0.355176
519	C	0.235306	0.41826	0.357917
520	H	0.250633	0.401214	0.379857
521	C	0.17071	0.488552	0.60018
522	H	0.191623	0.502004	0.577129
523	H	0.154958	0.512122	0.616824
524	H	0.15041	0.470806	0.580419
525	C	0.141733	0.048755	0.661017
526	N	0.140709	0.073046	0.363871
527	C	0.119597	0.106909	0.365914
528	C	0.095345	0.116259	0.328746
529	N	0.095961	0.091418	0.626347
530	C	0.118645	0.059072	0.623727
531	H	0.115829	0.040874	0.596651
532	C	0.119654	0.129218	0.408467
533	H	0.138725	0.115615	0.433325
534	H	0.090151	0.13033	0.422333
535	H	0.130117	0.159052	0.402583
536	C	0.858393	0.957259	0.663174
537	N	0.86131	0.936195	0.368443
538	C	0.882547	0.902596	0.372706
539	C	0.904488	0.889877	0.335027
540	N	0.902442	0.911627	0.630214
541	C	0.879754	0.943841	0.62577
542	H	0.881041	0.959654	0.596668
543	C	0.884867	0.883717	0.417282
544	H	0.866647	0.898873	0.441772
545	H	0.915011	0.884216	0.429387
546	H	0.874885	0.85335	0.414997
547	C	0.955645	0.141471	0.652641
548	N	0.929817	0.145271	0.3537
549	C	0.895355	0.125106	0.35689
550	C	0.886672	0.096988	0.32305
551	N	0.912821	0.093071	0.622315
552	C	0.945977	0.114567	0.618411
553	H	0.964765	0.108744	0.592633
554	C	0.871461	0.130477	0.397746
555	H	0.884744	0.151894	0.420408
556	H	0.868583	0.102665	0.415688
557	H	0.842485	0.141008	0.388679
558	C	0.044116	0.864093	0.667541
559	N	0.068379	0.863497	0.370351
560	C	0.102652	0.884069	0.373189
561	C	0.112745	0.909219	0.336902
562	N	0.088098	0.909959	0.634444
563	C	0.055203	0.888012	0.63107
564	H	0.037489	0.891533	0.603779
565	C	0.12493	0.882343	0.415631
566	H	0.110856	0.862795	0.439816
567	H	0.126972	0.911548	0.430565
568	H	0.154291	0.871371	0.409258
569	C	0.364269	0.541145	0.338811
570	N	0.363765	0.565091	0.635642
571	C	0.38433	0.599433	0.632428
572	C	0.409345	0.609824	0.668635
573	N	0.409935	0.585543	0.371499
574	C	0.387942	0.552639	0.375272
575	H	0.391314	0.535146	0.402845
576	C	0.382698	0.621486	0.589755
577	H	0.363188	0.607232	0.565717
578	H	0.411775	0.623312	0.574814
579	H	0.371892	0.651081	0.595829
580	C	0.643547	0.456006	0.356095
581	N	0.645983	0.430923	0.654091
582	C	0.625864	0.396375	0.650934
583	C	0.599229	0.386921	0.68593
584	N	0.596467	0.412488	0.387499
585	C	0.618041	0.44568	0.391336
586	H	0.612929	0.464227	0.417607
587	C	0.629582	0.373383	0.609072
588	H	0.649952	0.387314	0.585733
589	H	0.601202	0.370879	0.592525
590	H	0.640435	0.34409	0.616623
591	C	0.548066	0.640282	0.343738
592	N	0.571486	0.637819	0.640345
593	C	0.605608	0.617299	0.638916
594	C	0.616289	0.59547	0.677594
595	N	0.5922	0.597278	0.380502
596	C	0.559426	0.619296	0.382269
597	H	0.541901	0.617684	0.409969
598	C	0.626915	0.615306	0.595826
599	H	0.612596	0.632892	0.570038
600	H	0.628128	0.584959	0.584066
601	H	0.656577	0.626445	0.600136
602	C	0.459936	0.357904	0.348317
603	N	0.436378	0.35587	0.644967
604	C	0.401954	0.375614	0.640703
605	C	0.39094	0.401293	0.676018
606	N	0.414789	0.403495	0.379076
607	C	0.447812	0.382273	0.383893
608	H	0.464902	0.386742	0.411553
609	C	0.380439	0.372514	0.597822
610	H	0.394902	0.352417	0.574714
611	H	0.378713	0.401278	0.581781
612	H	0.350942	0.361507	0.60394
613	C	0.080208	0.373838	0.66683
614	C	0.119789	0.385435	0.662919
615	C	0.13144	0.425336	0.661748
616	C	0.10168	0.454015	0.663379
617	C	0.061442	0.443936	0.663134
618	C	0.051397	0.403548	0.665636
619	H	0.109481	0.482847	0.666357
620	H	0.022509	0.395576	0.666918
621	H	0.140737	0.364234	0.660112
622	C	0.926724	0.630168	0.673905
623	C	0.886633	0.619804	0.675072
624	C	0.873677	0.580434	0.671805
625	C	0.902211	0.550481	0.671171
626	C	0.942644	0.559421	0.669745
627	C	0.954162	0.599442	0.669581
628	H	0.893365	0.521755	0.669182
629	H	0.983149	0.60626	0.666451
630	H	0.866357	0.641495	0.679238
631	C	0.626611	0.074162	0.666398
632	C	0.615814	0.114265	0.666481
633	C	0.576293	0.126373	0.66577
634	C	0.547105	0.096822	0.666002
635	C	0.556314	0.056414	0.663493
636	C	0.596295	0.045783	0.663852
637	H	0.518573	0.104846	0.669688
638	H	0.603395	0.016797	0.660689
639	H	0.637351	0.135278	0.667374
640	C	0.369737	0.919912	0.674092
641	C	0.380477	0.879997	0.67047
642	C	0.419853	0.868141	0.666377
643	C	0.449221	0.897505	0.667689
644	C	0.439752	0.937863	0.669722
645	C	0.399818	0.948541	0.671828
646	H	0.477922	0.88943	0.664757
647	H	0.392604	0.977658	0.673834
648	H	0.359095	0.859037	0.670678
649	C	0.064763	0.144362	0.662829
650	C	0.025926	0.130965	0.657609
651	C	0.993993	0.157071	0.656694
652	C	0.001481	0.197723	0.661034
653	C	0.040175	0.212385	0.665468
654	C	0.071437	0.185161	0.667032
655	H	0.978455	0.216815	0.660517
656	H	0.099649	0.195188	0.669105
657	H	0.020702	0.101325	0.655462
658	C	0.934887	0.861861	0.670607
659	C	0.973931	0.875203	0.669101
660	C	0.005621	0.848831	0.670805
661	C	0.997662	0.808188	0.674354
662	C	0.9587	0.793666	0.673972
663	C	0.927608	0.821089	0.672657
664	H	0.020565	0.788916	0.674475
665	H	0.89923	0.811406	0.673106
666	H	0.979386	0.904821	0.66725
667	C	0.85788	0.06693	0.660169
668	C	0.870399	0.027508	0.661051
669	C	0.843665	0.995996	0.664449
670	C	0.803379	0.004352	0.667726
671	C	0.78952	0.043524	0.665398
672	C	0.817332	0.074474	0.661906
673	H	0.783892	0.981466	0.669319
674	H	0.808041	0.102963	0.660434
675	H	0.899761	0.021567	0.659642
676	C	0.141605	0.939361	0.671798
677	C	0.129378	0.978674	0.667042
678	C	0.156316	0.010157	0.665898
679	C	0.196593	0.001868	0.669497
680	C	0.210049	0.962702	0.673858
681	C	0.182049	0.931833	0.675592
682	H	0.216249	0.024619	0.668585
683	H	0.191245	0.903294	0.677339
684	H	0.100049	0.984572	0.664777
685	C	0.439199	0.638879	0.666864
686	C	0.478452	0.626871	0.671318
687	C	0.509479	0.654278	0.672305
688	C	0.500864	0.694655	0.669178
689	C	0.461742	0.70779	0.665281
690	C	0.431265	0.679431	0.663426
691	H	0.52334	0.714608	0.670118
692	H	0.402758	0.688421	0.662101
693	H	0.484621	0.597472	0.673583
694	C	0.56932	0.358083	0.682673
695	C	0.530022	0.37045	0.68335
696	C	0.498696	0.343521	0.679741
697	C	0.507277	0.303285	0.674314
698	C	0.546397	0.289634	0.675377
699	C	0.577108	0.317531	0.679302
700	H	0.484641	0.283566	0.672311
701	H	0.605546	0.308338	0.67956
702	H	0.52407	0.399892	0.685655
703	C	0.644738	0.565302	0.67793
704	C	0.6319	0.526218	0.683813
705	C	0.658413	0.494641	0.685252
706	C	0.698745	0.502642	0.680922
707	C	0.71278	0.541658	0.676025
708	C	0.685236	0.57263	0.6737
709	H	0.718028	0.479743	0.681687
710	H	0.694765	0.601086	0.670956
711	H	0.602468	0.520528	0.685963
712	C	0.362605	0.431352	0.671952
713	C	0.375561	0.470727	0.672482
714	C	0.349235	0.502377	0.669383
715	C	0.308955	0.494068	0.664774
716	C	0.294714	0.454849	0.665787
717	C	0.322089	0.423786	0.669034
718	H	0.289695	0.516984	0.663483
719	H	0.312545	0.395254	0.66941
720	H	0.40497	0.476502	0.674757
721	C	0.971303	0.529286	0.66737
722	N	0.001364	0.532703	0.971212
723	C	0.031209	0.506708	0.966848
724	C	0.031801	0.473501	0.995907
725	N	0.001124	0.469658	0.691475
726	C	0.971112	0.495489	0.694725
727	H	0.949751	0.490806	0.718074
728	C	0.059306	0.514368	0.930142
729	H	0.047744	0.535628	0.906229
730	H	0.065599	0.487377	0.911844
731	H	0.086247	0.526476	0.943864
732	C	0.469519	0.967135	0.668313
733	N	0.466359	0.997447	0.972316
734	C	0.492837	0.027143	0.967817
735	C	0.526301	0.027039	0.996225
736	N	0.529854	0.996087	0.691575
737	C	0.503492	0.966313	0.695094
738	H	0.508117	0.944469	0.71793
739	C	0.485583	0.055791	0.931534
740	H	0.463509	0.04496	0.90811
741	H	0.512338	0.061429	0.912582
742	H	0.474895	0.083091	0.945769
743	C	0.048116	0.253457	0.00063
744	N	0.07536	0.267457	0.696426
745	C	0.086906	0.305652	0.699636
746	C	0.069826	0.333245	0.669648
747	N	0.041945	0.319395	0.974375
748	C	0.030131	0.281317	0.972416
749	H	0.009876	0.2732	0.94899
750	C	0.114693	0.315637	0.736033
751	H	0.118655	0.290921	0.7589
752	H	0.103677	0.340353	0.755499
753	H	0.143252	0.323171	0.722301
754	C	0.951133	0.752462	0.006917
755	N	0.972459	0.727732	0.699626
756	C	0.967559	0.688007	0.701709
757	C	0.93787	0.6707	0.674585
758	N	0.916481	0.695597	0.982036
759	C	0.921716	0.735007	0.980316
760	H	0.904579	0.751197	0.959311
761	C	0.99153	0.666513	0.734839
762	H	0.007717	0.686713	0.756448
763	H	0.012749	0.648004	0.717796
764	H	0.972875	0.648327	0.756146
765	C	0.748546	0.051181	0.998795
766	N	0.724193	0.030563	0.692893
767	C	0.684687	0.035212	0.695392
768	C	0.667087	0.063709	0.666964
769	N	0.691611	0.084583	0.973194
770	C	0.730868	0.079697	0.971232
771	H	0.746753	0.096286	0.949214
772	C	0.663719	0.01224	0.730073
773	H	0.684102	0.996851	0.752017
774	H	0.64492	0.990265	0.714468
775	H	0.646053	0.031673	0.75086
776	C	0.250696	0.953914	0.008576
777	N	0.264175	0.926756	0.704758
778	C	0.301927	0.914589	0.7078
779	C	0.329591	0.930908	0.677269
780	N	0.316249	0.958674	0.98156
781	C	0.27863	0.971081	0.979699
782	H	0.27088	0.991293	0.956044
783	C	0.311465	0.887117	0.744671
784	H	0.287181	0.884366	0.768222
785	H	0.336867	0.897769	0.763244
786	H	0.317524	0.857936	0.731508
787	C	0.45268	0.748495	0.664533
788	N	0.425218	0.762119	0.968934
789	C	0.413084	0.800052	0.966358
790	C	0.429918	0.827654	0.996661
791	N	0.45791	0.814142	0.691823
792	C	0.470138	0.776347	0.693366
793	H	0.490613	0.768466	0.716572
794	C	0.385171	0.809852	0.930138
795	H	0.381734	0.785439	0.906728
796	H	0.395691	0.835229	0.911253
797	H	0.356451	0.816271	0.944019
798	C	0.554396	0.248729	0.672989
799	N	0.53391	0.22564	0.977481
800	C	0.538608	0.186209	0.972634
801	C	0.56682	0.167223	0.000153
802	N	0.587705	0.190566	0.695272
803	C	0.582959	0.229901	0.699344
804	H	0.599401	0.244923	0.722267
805	C	0.515119	0.167015	0.937196
806	H	0.502855	0.188566	0.914095
807	H	0.490867	0.151108	0.952448
808	H	0.533049	0.146841	0.917687
809	C	0.753555	0.55	0.674153
810	N	0.767244	0.577466	0.978333
811	C	0.805274	0.588887	0.97462
812	C	0.832995	0.571204	0.003868
813	N	0.819455	0.543138	0.699189
814	C	0.781495	0.531696	0.701896
815	H	0.773639	0.511118	0.725159
816	C	0.814944	0.61692	0.938252
817	H	0.78995	0.621553	0.916121
818	H	0.838931	0.605582	0.917992
819	H	0.823246	0.645341	0.952116
820	C	0.253745	0.447195	0.664717
821	N	0.23013	0.468501	0.970759
822	C	0.19064	0.464121	0.967412
823	C	0.172166	0.435227	0.994783
824	N	0.196008	0.413733	0.688509
825	C	0.235306	0.41826	0.69125
826	H	0.250633	0.401214	0.71319
827	C	0.17071	0.488552	0.933513
828	H	0.191623	0.502004	0.910462
829	H	0.154958	0.512122	0.950157
830	H	0.15041	0.470806	0.913752
831	C	0.141733	0.048755	0.99435
832	N	0.140709	0.073046	0.697204
833	C	0.119597	0.106909	0.69925
834	C	0.095345	0.116259	0.662081
835	N	0.095961	0.091418	0.95968
836	C	0.118645	0.059072	0.95706
837	H	0.115829	0.040874	0.929987
838	C	0.119654	0.129218	0.7418
839	H	0.138725	0.115615	0.766658
840	H	0.090151	0.13033	0.755666
841	H	0.130117	0.159052	0.735916
842	C	0.858393	0.957259	0.99651
843	N	0.86131	0.936195	0.701776
844	C	0.882547	0.902596	0.706039
845	C	0.904488	0.889877	0.66836
846	N	0.902442	0.911627	0.963547
847	C	0.879754	0.943841	0.959106
848	H	0.881041	0.959654	0.930001
849	C	0.884867	0.883717	0.750615
850	H	0.866647	0.898873	0.775108
851	H	0.915011	0.884216	0.762724
852	H	0.874885	0.85335	0.74833
853	C	0.955645	0.141471	0.985974
854	N	0.929817	0.145271	0.687033
855	C	0.895355	0.125106	0.690227
856	C	0.886672	0.096988	0.656385
857	N	0.912821	0.093071	0.955648
858	C	0.945977	0.114567	0.951744
859	H	0.964765	0.108744	0.925969
860	C	0.871461	0.130477	0.731079
861	H	0.884744	0.151894	0.753741
862	H	0.868583	0.102665	0.749021
863	H	0.842485	0.141008	0.722012
864	C	0.044116	0.864093	0.000874
865	N	0.068379	0.863497	0.703688
866	C	0.102652	0.884069	0.706522
867	C	0.112745	0.909219	0.670238
868	N	0.088098	0.909959	0.967777
869	C	0.055203	0.888012	0.964406
870	H	0.037489	0.891533	0.937112
871	C	0.12493	0.882343	0.748968
872	H	0.110856	0.862795	0.773149
873	H	0.126972	0.911548	0.763898
874	H	0.154291	0.871371	0.742591
875	C	0.364269	0.541145	0.672144
876	N	0.363765	0.565091	0.968975
877	C	0.38433	0.599433	0.965761
878	C	0.409345	0.609824	0.001968
879	N	0.409935	0.585543	0.704831
880	C	0.387942	0.552639	0.708605
881	H	0.391314	0.535146	0.736178
882	C	0.382698	0.621486	0.923091
883	H	0.363188	0.607232	0.899054
884	H	0.411775	0.623312	0.908147
885	H	0.371892	0.651081	0.929162
886	C	0.643547	0.456006	0.689428
887	N	0.645983	0.430923	0.987424
888	C	0.625864	0.396375	0.984267
889	C	0.599229	0.386921	0.019261
890	N	0.596467	0.412488	0.720832
891	C	0.618041	0.44568	0.724669
892	H	0.612929	0.464227	0.750943
893	C	0.629582	0.373383	0.942405
894	H	0.649952	0.387314	0.919066
895	H	0.601202	0.370879	0.925858
896	H	0.640435	0.34409	0.949956
897	C	0.548066	0.640282	0.677071
898	N	0.571486	0.637819	0.973677
899	C	0.605608	0.617299	0.972249
900	C	0.616289	0.59547	0.010926
901	N	0.5922	0.597278	0.713834
902	C	0.559426	0.619296	0.715602
903	H	0.541901	0.617684	0.743302
904	C	0.626915	0.615306	0.929159
905	H	0.612596	0.632892	0.903371
906	H	0.628128	0.584959	0.917399
907	H	0.656577	0.626445	0.933469
908	C	0.459936	0.357904	0.681653
909	N	0.436378	0.35587	0.9783
910	C	0.401954	0.375614	0.974036
911	C	0.39094	0.401293	0.009351
912	N	0.414789	0.403495	0.712409
913	C	0.447812	0.382273	0.717226
914	H	0.464902	0.386742	0.744889
915	C	0.380439	0.372514	0.931158
916	H	0.394902	0.352417	0.908047
917	H	0.378713	0.401278	0.915114
918	H	0.350942	0.361507	0.937273
