data_C504H288N72_2018-02-15_10:39:16
#******************************************
#
# CIF file created by Zeo++
# Zeo++ is an open source package to
# analyze microporous materials
#
#*******************************************

_cell_length_a		44.2282   
_cell_length_b		44.2282   
_cell_length_c		29.7346   
_cell_angle_alpha		90   
_cell_angle_beta		90   
_cell_angle_gamma		120   

_symmetry_space_group_name_H-M		'P1'
_symmetry_Int_Tables_number		1
_symmetry_cell_setting		Monoclinic

loop_
_symmetry_equiv_pos_as_xyz
'+x,+y,+z'

loop_
_atom_site_label
_atom_site_type_symbol
_atom_site_fract_x
_atom_site_fract_y
_atom_site_fract_z
1	C	0.099382	0.300809	0.337337
2	C	0.080912	0.291567	0.296283
3	C	0.044142	0.273179	0.295977
4	C	0.02534	0.263783	0.337028
5	N	0.044423	0.273328	0.042434
6	C	0.079852	0.291045	0.044201
7	H	0.09191	0.297076	0.074875
8	H	0.094089	0.298151	0.266329
9	H	0.031488	0.266848	0.265693
10	C	0.099382	0.300809	0.670672
11	C	0.080912	0.291567	0.629616
12	C	0.044142	0.273179	0.62931
13	C	0.02534	0.263783	0.670359
14	N	0.044423	0.273328	0.375767
15	C	0.079852	0.291045	0.377536
16	H	0.09191	0.297076	0.408207
17	H	0.094089	0.298151	0.599664
18	H	0.031488	0.266848	0.599025
19	C	0.099382	0.300809	0.004004
20	C	0.080912	0.291567	0.962951
21	C	0.044142	0.273179	0.962645
22	C	0.02534	0.263783	0.003695
23	N	0.044423	0.273328	0.709102
24	C	0.079852	0.291045	0.710868
25	H	0.09191	0.297076	0.741542
26	H	0.094089	0.298151	0.932996
27	H	0.031488	0.266848	0.93236
28	C	0.099382	0.80081	0.337337
29	C	0.080912	0.791568	0.296283
30	C	0.044143	0.77318	0.295977
31	C	0.025341	0.763784	0.337028
32	N	0.044424	0.773329	0.042434
33	C	0.079853	0.791046	0.044201
34	H	0.09191	0.797077	0.074875
35	H	0.09409	0.798152	0.266329
36	H	0.031488	0.766849	0.265693
37	C	0.099382	0.80081	0.670672
38	C	0.080912	0.791568	0.629616
39	C	0.044143	0.77318	0.62931
40	C	0.025341	0.763784	0.670359
41	N	0.044424	0.773329	0.375767
42	C	0.079853	0.791046	0.377536
43	H	0.09191	0.797077	0.408207
44	H	0.09409	0.798152	0.599664
45	H	0.031488	0.766849	0.599025
46	C	0.099382	0.80081	0.004004
47	C	0.080912	0.791568	0.962951
48	C	0.044143	0.77318	0.962645
49	C	0.025341	0.763784	0.003695
50	N	0.044424	0.773329	0.709102
51	C	0.079853	0.791046	0.710868
52	H	0.09191	0.797077	0.741542
53	H	0.09409	0.798152	0.932996
54	H	0.031488	0.766849	0.93236
55	C	0.13633	0.31928	0.004753
56	C	0.154987	0.356176	0.004705
57	C	0.154975	0.301031	0.004712
58	H	0.141591	0.27427	0.004434
59	H	0.14161	0.369561	0.004434
60	C	0.13633	0.31928	0.338087
61	C	0.154987	0.356176	0.33804
62	C	0.154975	0.301031	0.338047
63	H	0.141591	0.27427	0.337768
64	H	0.14161	0.369561	0.337768
65	C	0.13633	0.31928	0.671419
66	C	0.154987	0.356176	0.671372
67	C	0.154975	0.301031	0.671378
68	H	0.141591	0.27427	0.671099
69	H	0.14161	0.369561	0.671099
70	C	0.136331	0.819281	0.004753
71	C	0.154987	0.856177	0.004705
72	C	0.154976	0.801032	0.004712
73	H	0.141591	0.774271	0.004434
74	H	0.141609	0.86956	0.004434
75	C	0.136331	0.819281	0.338087
76	C	0.154987	0.856177	0.33804
77	C	0.154976	0.801032	0.338047
78	H	0.141591	0.774271	0.337768
79	H	0.141609	0.86956	0.337768
80	C	0.136331	0.819281	0.671419
81	C	0.154987	0.856177	0.671372
82	C	0.154976	0.801032	0.671378
83	H	0.141591	0.774271	0.671099
84	H	0.141609	0.86956	0.671099
85	C	0.191882	0.374822	0.004753
86	C	0.191869	0.31927	0.004755
87	C	0.191882	0.374822	0.338087
88	C	0.191869	0.31927	0.338087
89	C	0.191882	0.374822	0.671419
90	C	0.191869	0.31927	0.671422
91	C	0.191881	0.87482	0.004753
92	C	0.19187	0.819271	0.004755
93	C	0.191881	0.87482	0.338087
94	C	0.19187	0.819271	0.338087
95	C	0.191881	0.87482	0.671419
96	C	0.19187	0.819271	0.671422
97	C	0.21012	0.356165	0.004706
98	H	0.236882	0.369543	0.004434
99	C	0.377054	0.189641	0.004474
100	C	0.358397	0.152746	0.004521
101	C	0.321501	0.134101	0.004477
102	C	0.303264	0.152758	0.004514
103	C	0.321517	0.189653	0.004475
104	C	0.35841	0.207891	0.004514
105	H	0.276502	0.139383	0.004804
106	H	0.371795	0.234652	0.004804
107	H	0.371772	0.13936	0.004804
108	C	0.210338	0.300793	0.337337
109	C	0.219579	0.291567	0.296283
110	C	0.237967	0.273184	0.295976
111	C	0.247366	0.263783	0.337028
112	N	0.237817	0.273315	0.042434
113	C	0.220097	0.291024	0.044202
114	C	0.266022	0.245143	0.005607
115	C	0.27543	0.235738	0.046649
116	C	0.293819	0.217356	0.04632
117	C	0.303049	0.208132	0.005253
118	C	0.29328	0.217904	0.298401
119	N	0.275563	0.235613	0.300192
120	H	0.299305	0.211883	0.26772
121	H	0.269102	0.242057	0.076938
122	H	0.30041	0.210759	0.076266
123	H	0.214065	0.297049	0.074876
124	H	0.212994	0.298159	0.266329
125	H	0.244302	0.266866	0.265692
126	C	0.210362	0.41177	0.337337
127	C	0.219591	0.430241	0.296283
128	C	0.237971	0.467011	0.295977
129	C	0.247371	0.485811	0.337028
130	N	0.23784	0.466729	0.042434
131	C	0.220134	0.431301	0.044201
132	C	0.266009	0.023111	0.005607
133	C	0.275414	0.041925	0.046648
134	C	0.293794	0.078696	0.046319
135	C	0.303018	0.097153	0.005254
136	C	0.293245	0.077611	0.298402
137	N	0.275538	0.042184	0.300192
138	H	0.299265	0.089657	0.267721
139	H	0.269095	0.029279	0.076937
140	H	0.300391	0.091884	0.076266
141	H	0.214109	0.419242	0.074874
142	H	0.212999	0.417064	0.266329
143	H	0.244289	0.479663	0.265693
144	C	0.488042	0.245134	0.005607
145	C	0.469228	0.235729	0.046647
146	C	0.432458	0.217343	0.046318
147	C	0.414	0.208111	0.005252
148	C	0.433544	0.217883	0.298401
149	N	0.468971	0.235597	0.300192
150	H	0.421498	0.211861	0.26772
151	H	0.481874	0.242054	0.076937
152	H	0.419268	0.21075	0.076264
153	C	0.21012	0.356165	0.33804
154	H	0.236882	0.369543	0.337768
155	C	0.377054	0.189641	0.337808
156	C	0.358397	0.152746	0.337855
157	C	0.321501	0.134101	0.337811
158	C	0.303264	0.152758	0.337848
159	C	0.321517	0.189653	0.337808
160	C	0.35841	0.207891	0.337848
161	H	0.276502	0.139383	0.338138
162	H	0.371795	0.234652	0.338138
163	H	0.371772	0.13936	0.338138
164	C	0.210338	0.300793	0.670672
165	C	0.219579	0.291567	0.629616
166	C	0.237967	0.273184	0.62931
167	C	0.247366	0.263783	0.670359
168	N	0.237817	0.273315	0.375767
169	C	0.220097	0.291024	0.377536
170	C	0.266022	0.245143	0.338941
171	C	0.27543	0.235738	0.379984
172	C	0.293819	0.217356	0.379655
173	C	0.303049	0.208132	0.338588
174	C	0.29328	0.217904	0.631734
175	N	0.275563	0.235613	0.633527
176	H	0.299305	0.211883	0.601053
177	H	0.269102	0.242057	0.410272
178	H	0.30041	0.210759	0.4096
179	H	0.214065	0.297049	0.408211
180	H	0.212994	0.298159	0.599664
181	H	0.244302	0.266866	0.599025
182	C	0.210362	0.41177	0.670672
183	C	0.219591	0.430241	0.629616
184	C	0.237971	0.467011	0.62931
185	C	0.247371	0.485811	0.670359
186	N	0.23784	0.466729	0.375767
187	C	0.220134	0.431301	0.377533
188	C	0.266009	0.023111	0.338941
189	C	0.275414	0.041925	0.379981
190	C	0.293794	0.078696	0.379651
191	C	0.303018	0.097153	0.338588
192	C	0.293245	0.077611	0.631738
193	N	0.275538	0.042184	0.633527
194	H	0.299265	0.089657	0.601056
195	H	0.269095	0.029279	0.410269
196	H	0.300391	0.091884	0.4096
197	H	0.214109	0.419242	0.408207
198	H	0.212999	0.417064	0.599664
199	H	0.244289	0.479663	0.599029
200	C	0.488042	0.245134	0.338941
201	C	0.469228	0.235729	0.379981
202	C	0.432458	0.217343	0.379651
203	C	0.414	0.208111	0.338585
204	C	0.433544	0.217883	0.631734
205	N	0.468971	0.235597	0.633527
206	H	0.421498	0.211861	0.601053
207	H	0.481874	0.242054	0.410269
208	H	0.419268	0.21075	0.4096
209	C	0.21012	0.356165	0.671375
210	H	0.236882	0.369543	0.671103
211	C	0.377054	0.189641	0.671143
212	C	0.358397	0.152746	0.67119
213	C	0.321501	0.134101	0.671146
214	C	0.303264	0.152758	0.671183
215	C	0.321517	0.189653	0.671143
216	C	0.35841	0.207891	0.67118
217	H	0.276502	0.139383	0.671473
218	H	0.371795	0.234652	0.671473
219	H	0.371772	0.13936	0.671473
220	C	0.210338	0.300793	0.004007
221	C	0.219579	0.291567	0.962951
222	C	0.237967	0.273184	0.962645
223	C	0.247366	0.263783	0.003695
224	N	0.237817	0.273315	0.709102
225	C	0.220097	0.291024	0.710868
226	C	0.266022	0.245143	0.672276
227	C	0.27543	0.235738	0.713316
228	C	0.293819	0.217356	0.712986
229	C	0.303049	0.208132	0.67192
230	C	0.29328	0.217904	0.96507
231	N	0.275563	0.235613	0.966859
232	H	0.299305	0.211883	0.934388
233	H	0.269102	0.242057	0.743607
234	H	0.30041	0.210759	0.742935
235	H	0.214065	0.297049	0.741542
236	H	0.212994	0.298159	0.932996
237	H	0.244302	0.266866	0.93236
238	C	0.210362	0.41177	0.004004
239	C	0.219591	0.430241	0.962951
240	C	0.237971	0.467011	0.962645
241	C	0.247371	0.485811	0.003695
242	N	0.23784	0.466729	0.709102
243	C	0.220134	0.431301	0.710868
244	C	0.266009	0.023111	0.672273
245	C	0.275414	0.041925	0.713316
246	C	0.293794	0.078696	0.712986
247	C	0.303018	0.097153	0.67192
248	C	0.293245	0.077611	0.96507
249	N	0.275538	0.042184	0.966859
250	H	0.299265	0.089657	0.934388
251	H	0.269095	0.029279	0.743604
252	H	0.300391	0.091884	0.742935
253	H	0.214109	0.419242	0.741542
254	H	0.212999	0.417064	0.932996
255	H	0.244289	0.479663	0.93236
256	C	0.488042	0.245134	0.672273
257	C	0.469228	0.235729	0.713316
258	C	0.432458	0.217343	0.712986
259	C	0.414	0.208111	0.67192
260	C	0.433544	0.217883	0.96507
261	N	0.468971	0.235597	0.966859
262	H	0.421498	0.211861	0.934388
263	H	0.481874	0.242054	0.743604
264	H	0.419268	0.21075	0.742931
265	C	0.21012	0.856166	0.004706
266	H	0.236881	0.869541	0.004434
267	C	0.377053	0.68964	0.004474
268	C	0.358395	0.652745	0.004521
269	C	0.321501	0.634101	0.004477
270	C	0.303264	0.652758	0.004514
271	C	0.321516	0.689653	0.004475
272	C	0.358409	0.70789	0.004514
273	H	0.276502	0.639383	0.004804
274	H	0.371795	0.734653	0.004804
275	H	0.371771	0.639359	0.004804
276	C	0.210337	0.800792	0.337337
277	C	0.219578	0.791565	0.296283
278	C	0.237967	0.773185	0.295976
279	C	0.247367	0.763784	0.337028
280	N	0.237818	0.773316	0.042434
281	C	0.220098	0.791025	0.044202
282	C	0.266022	0.745143	0.005607
283	C	0.275429	0.735736	0.046649
284	C	0.293819	0.717356	0.04632
285	C	0.303049	0.708132	0.005253
286	C	0.293281	0.717905	0.298401
287	N	0.275563	0.735614	0.300192
288	H	0.299304	0.711882	0.26772
289	H	0.269103	0.742057	0.076938
290	H	0.30041	0.710759	0.076266
291	H	0.214066	0.79705	0.074876
292	H	0.212993	0.798157	0.266329
293	H	0.244301	0.766865	0.265692
294	C	0.210363	0.911771	0.337337
295	C	0.219591	0.930239	0.296283
296	C	0.237969	0.96701	0.295977
297	C	0.247371	0.985812	0.337028
298	N	0.237841	0.96673	0.042434
299	C	0.220132	0.931299	0.044201
300	C	0.266009	0.523112	0.005607
301	C	0.275413	0.541925	0.046648
302	C	0.293793	0.578695	0.046319
303	C	0.303019	0.597153	0.005254
304	C	0.293245	0.577612	0.298402
305	N	0.275537	0.542183	0.300192
306	H	0.299264	0.589655	0.267721
307	H	0.269095	0.529278	0.076937
308	H	0.300391	0.591885	0.076266
309	H	0.214108	0.919243	0.074874
310	H	0.212998	0.917063	0.266329
311	H	0.24429	0.979664	0.265693
312	C	0.488043	0.745135	0.005607
313	C	0.469228	0.735728	0.046647
314	C	0.432457	0.717343	0.046318
315	C	0.414001	0.708112	0.005252
316	C	0.433544	0.717884	0.298401
317	N	0.468971	0.735598	0.300192
318	H	0.421498	0.711861	0.26772
319	H	0.481874	0.742054	0.076937
320	H	0.419269	0.710751	0.076264
321	C	0.21012	0.856166	0.33804
322	H	0.236881	0.869541	0.337768
323	C	0.377053	0.68964	0.337808
324	C	0.358395	0.652745	0.337855
325	C	0.321501	0.634101	0.337811
326	C	0.303264	0.652758	0.337848
327	C	0.321516	0.689653	0.337808
328	C	0.358409	0.70789	0.337848
329	H	0.276502	0.639383	0.338138
330	H	0.371795	0.734653	0.338138
331	H	0.371771	0.639359	0.338138
332	C	0.210337	0.800792	0.670672
333	C	0.219578	0.791565	0.629616
334	C	0.237967	0.773185	0.62931
335	C	0.247367	0.763784	0.670359
336	N	0.237818	0.773316	0.375767
337	C	0.220098	0.791025	0.377536
338	C	0.266022	0.745143	0.338941
339	C	0.275429	0.735736	0.379984
340	C	0.293819	0.717356	0.379655
341	C	0.303049	0.708132	0.338588
342	C	0.293281	0.717905	0.631734
343	N	0.275563	0.735614	0.633527
344	H	0.299304	0.711882	0.601053
345	H	0.269103	0.742057	0.410272
346	H	0.30041	0.710759	0.4096
347	H	0.214066	0.79705	0.408211
348	H	0.212993	0.798157	0.599664
349	H	0.244301	0.766865	0.599025
350	C	0.210363	0.911771	0.670672
351	C	0.219591	0.930239	0.629616
352	C	0.237969	0.96701	0.62931
353	C	0.247371	0.985812	0.670359
354	N	0.237841	0.96673	0.375767
355	C	0.220132	0.931299	0.377533
356	C	0.266009	0.523112	0.338941
357	C	0.275413	0.541925	0.379981
358	C	0.293793	0.578695	0.379651
359	C	0.303019	0.597153	0.338588
360	C	0.293245	0.577612	0.631738
361	N	0.275537	0.542183	0.633527
362	H	0.299264	0.589655	0.601056
363	H	0.269095	0.529278	0.410269
364	H	0.300391	0.591885	0.4096
365	H	0.214108	0.919243	0.408207
366	H	0.212998	0.917063	0.599664
367	H	0.24429	0.979664	0.599029
368	C	0.488043	0.745135	0.338941
369	C	0.469228	0.735728	0.379981
370	C	0.432457	0.717343	0.379651
371	C	0.414001	0.708112	0.338585
372	C	0.433544	0.717884	0.631734
373	N	0.468971	0.735598	0.633527
374	H	0.421498	0.711861	0.601053
375	H	0.481874	0.742054	0.410269
376	H	0.419269	0.710751	0.4096
377	C	0.21012	0.856166	0.671375
378	H	0.236881	0.869541	0.671103
379	C	0.377053	0.68964	0.671143
380	C	0.358395	0.652745	0.67119
381	C	0.321501	0.634101	0.671146
382	C	0.303264	0.652758	0.671183
383	C	0.321516	0.689653	0.671143
384	C	0.358409	0.70789	0.67118
385	H	0.276502	0.639383	0.671473
386	H	0.371795	0.734653	0.671473
387	H	0.371771	0.639359	0.671473
388	C	0.210337	0.800792	0.004007
389	C	0.219578	0.791565	0.962951
390	C	0.237967	0.773185	0.962645
391	C	0.247367	0.763784	0.003695
392	N	0.237818	0.773316	0.709102
393	C	0.220098	0.791025	0.710868
394	C	0.266022	0.745143	0.672276
395	C	0.275429	0.735736	0.713316
396	C	0.293819	0.717356	0.712986
397	C	0.303049	0.708132	0.67192
398	C	0.293281	0.717905	0.96507
399	N	0.275563	0.735614	0.966859
400	H	0.299304	0.711882	0.934388
401	H	0.269103	0.742057	0.743607
402	H	0.30041	0.710759	0.742935
403	H	0.214066	0.79705	0.741542
404	H	0.212993	0.798157	0.932996
405	H	0.244301	0.766865	0.93236
406	C	0.210363	0.911771	0.004004
407	C	0.219591	0.930239	0.962951
408	C	0.237969	0.96701	0.962645
409	C	0.247371	0.985812	0.003695
410	N	0.237841	0.96673	0.709102
411	C	0.220132	0.931299	0.710868
412	C	0.266009	0.523112	0.672273
413	C	0.275413	0.541925	0.713316
414	C	0.293793	0.578695	0.712986
415	C	0.303019	0.597153	0.67192
416	C	0.293245	0.577612	0.96507
417	N	0.275537	0.542183	0.966859
418	H	0.299264	0.589655	0.934388
419	H	0.269095	0.529278	0.743604
420	H	0.300391	0.591885	0.742935
421	H	0.214108	0.919243	0.741542
422	H	0.212998	0.917063	0.932996
423	H	0.24429	0.979664	0.93236
424	C	0.488043	0.745135	0.672273
425	C	0.469228	0.735728	0.713316
426	C	0.432457	0.717343	0.712986
427	C	0.414001	0.708112	0.67192
428	C	0.433544	0.717884	0.96507
429	N	0.468971	0.735598	0.966859
430	H	0.421498	0.711861	0.934388
431	H	0.481874	0.742054	0.743604
432	H	0.419269	0.710751	0.742931
433	C	0.636329	0.31928	0.004753
434	C	0.654987	0.356176	0.004705
435	C	0.691881	0.374822	0.004753
436	C	0.710119	0.356165	0.004706
437	C	0.691868	0.31927	0.004755
438	C	0.654974	0.301031	0.004712
439	H	0.736881	0.369543	0.004434
440	H	0.641592	0.27427	0.004434
441	H	0.641609	0.369561	0.004434
442	C	0.877052	0.189641	0.004474
443	C	0.858394	0.152746	0.004521
444	C	0.821501	0.134101	0.004477
445	C	0.803264	0.152758	0.004514
446	C	0.821514	0.189653	0.004475
447	C	0.85841	0.207891	0.004514
448	H	0.776503	0.139383	0.004804
449	H	0.871795	0.234652	0.004804
450	H	0.87177	0.13936	0.004804
451	C	0.710338	0.300793	0.337337
452	C	0.719578	0.291567	0.296283
453	C	0.737966	0.273184	0.295976
454	C	0.747365	0.263783	0.337028
455	N	0.737817	0.273315	0.042434
456	C	0.720098	0.291024	0.044202
457	C	0.766023	0.245143	0.005607
458	C	0.775429	0.235738	0.046649
459	C	0.793818	0.217356	0.04632
460	C	0.803048	0.208132	0.005253
461	C	0.79328	0.217904	0.298401
462	N	0.775563	0.235613	0.300192
463	H	0.799304	0.211883	0.26772
464	H	0.769101	0.242057	0.076938
465	H	0.800409	0.210759	0.076266
466	H	0.714064	0.297049	0.074876
467	H	0.712993	0.298159	0.266329
468	H	0.744301	0.266866	0.265692
469	C	0.710362	0.41177	0.337337
470	C	0.71959	0.430241	0.296283
471	C	0.737971	0.467011	0.295977
472	C	0.747371	0.485811	0.337028
473	N	0.737839	0.466729	0.042434
474	C	0.720134	0.431301	0.044201
475	C	0.766009	0.023111	0.005607
476	C	0.775414	0.041925	0.046648
477	C	0.793794	0.078696	0.046319
478	C	0.803018	0.097153	0.005254
479	C	0.793245	0.077611	0.298402
480	N	0.775536	0.042184	0.300192
481	H	0.799265	0.089657	0.267721
482	H	0.769095	0.029279	0.076937
483	H	0.800391	0.091884	0.076266
484	H	0.714109	0.419242	0.074874
485	H	0.712998	0.417064	0.266329
486	H	0.744288	0.479663	0.265693
487	C	0.599383	0.300809	0.337337
488	C	0.580913	0.291567	0.296283
489	C	0.544142	0.273179	0.295977
490	C	0.525339	0.263783	0.337028
491	N	0.544422	0.273328	0.042434
492	C	0.579852	0.291045	0.044201
493	C	0.988042	0.245134	0.005607
494	C	0.969226	0.235729	0.046647
495	C	0.932456	0.217343	0.046318
496	C	0.914	0.208111	0.005252
497	C	0.933542	0.217883	0.298401
498	N	0.968971	0.235597	0.300192
499	H	0.921498	0.211861	0.26772
500	H	0.981874	0.242054	0.076937
501	H	0.919268	0.21075	0.076264
502	H	0.591909	0.297076	0.074875
503	H	0.594088	0.298151	0.266329
504	H	0.531489	0.266848	0.265693
505	C	0.636329	0.31928	0.338087
506	C	0.654987	0.356176	0.33804
507	C	0.691881	0.374822	0.338087
508	C	0.710119	0.356165	0.33804
509	C	0.691868	0.31927	0.338087
510	C	0.654974	0.301031	0.338047
511	H	0.736881	0.369543	0.337768
512	H	0.641592	0.27427	0.337768
513	H	0.641609	0.369561	0.337768
514	C	0.877052	0.189641	0.337808
515	C	0.858394	0.152746	0.337855
516	C	0.821501	0.134101	0.337811
517	C	0.803264	0.152758	0.337848
518	C	0.821514	0.189653	0.337808
519	C	0.85841	0.207891	0.337848
520	H	0.776503	0.139383	0.338138
521	H	0.871795	0.234652	0.338138
522	H	0.87177	0.13936	0.338138
523	C	0.710338	0.300793	0.670672
524	C	0.719578	0.291567	0.629616
525	C	0.737966	0.273184	0.62931
526	C	0.747365	0.263783	0.670359
527	N	0.737817	0.273315	0.375767
528	C	0.720098	0.291024	0.377536
529	C	0.766023	0.245143	0.338941
530	C	0.775429	0.235738	0.379984
531	C	0.793818	0.217356	0.379655
532	C	0.803048	0.208132	0.338588
533	C	0.79328	0.217904	0.631734
534	N	0.775563	0.235613	0.633527
535	H	0.799304	0.211883	0.601053
536	H	0.769101	0.242057	0.410272
537	H	0.800409	0.210759	0.4096
538	H	0.714064	0.297049	0.408211
539	H	0.712993	0.298159	0.599664
540	H	0.744301	0.266866	0.599025
541	C	0.710362	0.41177	0.670672
542	C	0.71959	0.430241	0.629616
543	C	0.737971	0.467011	0.62931
544	C	0.747371	0.485811	0.670359
545	N	0.737839	0.466729	0.375767
546	C	0.720134	0.431301	0.377533
547	C	0.766009	0.023111	0.338941
548	C	0.775414	0.041925	0.379981
549	C	0.793794	0.078696	0.379651
550	C	0.803018	0.097153	0.338588
551	C	0.793245	0.077611	0.631738
552	N	0.775536	0.042184	0.633527
553	H	0.799265	0.089657	0.601056
554	H	0.769095	0.029279	0.410269
555	H	0.800391	0.091884	0.4096
556	H	0.714109	0.419242	0.408207
557	H	0.712998	0.417064	0.599664
558	H	0.744288	0.479663	0.599029
559	C	0.599383	0.300809	0.670672
560	C	0.580913	0.291567	0.629616
561	C	0.544142	0.273179	0.62931
562	C	0.525339	0.263783	0.670359
563	N	0.544422	0.273328	0.375767
564	C	0.579852	0.291045	0.377536
565	C	0.988042	0.245134	0.338941
566	C	0.969226	0.235729	0.379981
567	C	0.932456	0.217343	0.379651
568	C	0.914	0.208111	0.338585
569	C	0.933542	0.217883	0.631734
570	N	0.968971	0.235597	0.633527
571	H	0.921498	0.211861	0.601053
572	H	0.981874	0.242054	0.410269
573	H	0.919268	0.21075	0.4096
574	H	0.591909	0.297076	0.408207
575	H	0.594088	0.298151	0.599664
576	H	0.531489	0.266848	0.599025
577	C	0.636329	0.31928	0.671419
578	C	0.654987	0.356176	0.671372
579	C	0.691881	0.374822	0.671419
580	C	0.710119	0.356165	0.671375
581	C	0.691868	0.31927	0.671422
582	C	0.654974	0.301031	0.671378
583	H	0.736881	0.369543	0.671103
584	H	0.641592	0.27427	0.671099
585	H	0.641609	0.369561	0.671099
586	C	0.877052	0.189641	0.671143
587	C	0.858394	0.152746	0.67119
588	C	0.821501	0.134101	0.671146
589	C	0.803264	0.152758	0.671183
590	C	0.821514	0.189653	0.671143
591	C	0.85841	0.207891	0.67118
592	H	0.776503	0.139383	0.671473
593	H	0.871795	0.234652	0.671473
594	H	0.87177	0.13936	0.671473
595	C	0.710338	0.300793	0.004007
596	C	0.719578	0.291567	0.962951
597	C	0.737966	0.273184	0.962645
598	C	0.747365	0.263783	0.003695
599	N	0.737817	0.273315	0.709102
600	C	0.720098	0.291024	0.710868
601	C	0.766023	0.245143	0.672276
602	C	0.775429	0.235738	0.713316
603	C	0.793818	0.217356	0.712986
604	C	0.803048	0.208132	0.67192
605	C	0.79328	0.217904	0.96507
606	N	0.775563	0.235613	0.966859
607	H	0.799304	0.211883	0.934388
608	H	0.769101	0.242057	0.743607
609	H	0.800409	0.210759	0.742935
610	H	0.714064	0.297049	0.741542
611	H	0.712993	0.298159	0.932996
612	H	0.744301	0.266866	0.93236
613	C	0.710362	0.41177	0.004004
614	C	0.71959	0.430241	0.962951
615	C	0.737971	0.467011	0.962645
616	C	0.747371	0.485811	0.003695
617	N	0.737839	0.466729	0.709102
618	C	0.720134	0.431301	0.710868
619	C	0.766009	0.023111	0.672273
620	C	0.775414	0.041925	0.713316
621	C	0.793794	0.078696	0.712986
622	C	0.803018	0.097153	0.67192
623	C	0.793245	0.077611	0.96507
624	N	0.775536	0.042184	0.966859
625	H	0.799265	0.089657	0.934388
626	H	0.769095	0.029279	0.743604
627	H	0.800391	0.091884	0.742935
628	H	0.714109	0.419242	0.741542
629	H	0.712998	0.417064	0.932996
630	H	0.744288	0.479663	0.93236
631	C	0.599383	0.300809	0.004004
632	C	0.580913	0.291567	0.962951
633	C	0.544142	0.273179	0.962645
634	C	0.525339	0.263783	0.003695
635	N	0.544422	0.273328	0.709102
636	C	0.579852	0.291045	0.710868
637	C	0.988042	0.245134	0.672273
638	C	0.969226	0.235729	0.713316
639	C	0.932456	0.217343	0.712986
640	C	0.914	0.208111	0.67192
641	C	0.933542	0.217883	0.96507
642	N	0.968971	0.235597	0.966859
643	H	0.921498	0.211861	0.934388
644	H	0.981874	0.242054	0.743604
645	H	0.919268	0.21075	0.742931
646	H	0.591909	0.297076	0.741542
647	H	0.594088	0.298151	0.932996
648	H	0.531489	0.266848	0.93236
649	C	0.636331	0.819281	0.004753
650	C	0.654987	0.856177	0.004705
651	C	0.691881	0.87482	0.004753
652	C	0.71012	0.856166	0.004706
653	C	0.691869	0.819271	0.004755
654	C	0.654976	0.801032	0.004712
655	H	0.736881	0.869541	0.004434
656	H	0.641591	0.774271	0.004434
657	H	0.641609	0.86956	0.004434
658	C	0.877053	0.68964	0.004474
659	C	0.858395	0.652745	0.004521
660	C	0.8215	0.634101	0.004477
661	C	0.803262	0.652758	0.004514
662	C	0.821516	0.689653	0.004475
663	C	0.858408	0.70789	0.004514
664	H	0.776502	0.639383	0.004804
665	H	0.871794	0.734653	0.004804
666	H	0.871771	0.639359	0.004804
667	C	0.710336	0.800792	0.337337
668	C	0.719578	0.791565	0.296283
669	C	0.737968	0.773185	0.295976
670	C	0.747367	0.763784	0.337028
671	N	0.737816	0.773316	0.042434
672	C	0.720097	0.791025	0.044202
673	C	0.766022	0.745143	0.005607
674	C	0.775429	0.735736	0.046649
675	C	0.793819	0.717356	0.04632
676	C	0.803049	0.708132	0.005253
677	C	0.793279	0.717905	0.298401
678	N	0.775562	0.735614	0.300192
679	H	0.799303	0.711882	0.26772
680	H	0.769103	0.742057	0.076938
681	H	0.80041	0.710759	0.076266
682	H	0.714066	0.79705	0.074876
683	H	0.712994	0.798157	0.266329
684	H	0.744302	0.766865	0.265692
685	C	0.710363	0.911771	0.337337
686	C	0.719591	0.930239	0.296283
687	C	0.737969	0.96701	0.295977
688	C	0.747371	0.985812	0.337028
689	N	0.737841	0.96673	0.042434
690	C	0.720132	0.931299	0.044201
691	C	0.766008	0.523112	0.005607
692	C	0.775412	0.541925	0.046648
693	C	0.793793	0.578695	0.046319
694	C	0.80302	0.597153	0.005254
695	C	0.793244	0.577612	0.298402
696	N	0.775537	0.542183	0.300192
697	H	0.799264	0.589655	0.267721
698	H	0.769096	0.529278	0.076937
699	H	0.80039	0.591885	0.076266
700	H	0.714108	0.919243	0.074874
701	H	0.712998	0.917063	0.266329
702	H	0.74429	0.979664	0.265693
703	C	0.599382	0.80081	0.337337
704	C	0.580913	0.791568	0.296283
705	C	0.544142	0.77318	0.295977
706	C	0.525341	0.763784	0.337028
707	N	0.544424	0.773329	0.042434
708	C	0.579853	0.791046	0.044201
709	C	0.988041	0.745135	0.005607
710	C	0.969227	0.735728	0.046647
711	C	0.932457	0.717343	0.046318
712	C	0.914002	0.708112	0.005252
713	C	0.933544	0.717884	0.298401
714	N	0.96897	0.735598	0.300192
715	H	0.921497	0.711861	0.26772
716	H	0.981875	0.742054	0.076937
717	H	0.919269	0.710751	0.076264
718	H	0.59191	0.797077	0.074875
719	H	0.594089	0.798152	0.266329
720	H	0.531489	0.766849	0.265693
721	C	0.636331	0.819281	0.338087
722	C	0.654987	0.856177	0.33804
723	C	0.691881	0.87482	0.338087
724	C	0.71012	0.856166	0.33804
725	C	0.691869	0.819271	0.338087
726	C	0.654976	0.801032	0.338047
727	H	0.736881	0.869541	0.337768
728	H	0.641591	0.774271	0.337768
729	H	0.641609	0.86956	0.337768
730	C	0.877053	0.68964	0.337808
731	C	0.858395	0.652745	0.337855
732	C	0.8215	0.634101	0.337811
733	C	0.803262	0.652758	0.337848
734	C	0.821516	0.689653	0.337808
735	C	0.858408	0.70789	0.337848
736	H	0.776502	0.639383	0.338138
737	H	0.871794	0.734653	0.338138
738	H	0.871771	0.639359	0.338138
739	C	0.710336	0.800792	0.670672
740	C	0.719578	0.791565	0.629616
741	C	0.737968	0.773185	0.62931
742	C	0.747367	0.763784	0.670359
743	N	0.737816	0.773316	0.375767
744	C	0.720097	0.791025	0.377536
745	C	0.766022	0.745143	0.338941
746	C	0.775429	0.735736	0.379984
747	C	0.793819	0.717356	0.379655
748	C	0.803049	0.708132	0.338588
749	C	0.793279	0.717905	0.631734
750	N	0.775562	0.735614	0.633527
751	H	0.799303	0.711882	0.601053
752	H	0.769103	0.742057	0.410272
753	H	0.80041	0.710759	0.4096
754	H	0.714066	0.79705	0.408211
755	H	0.712994	0.798157	0.599664
756	H	0.744302	0.766865	0.599025
757	C	0.710363	0.911771	0.670672
758	C	0.719591	0.930239	0.629616
759	C	0.737969	0.96701	0.62931
760	C	0.747371	0.985812	0.670359
761	N	0.737841	0.96673	0.375767
762	C	0.720132	0.931299	0.377533
763	C	0.766008	0.523112	0.338941
764	C	0.775412	0.541925	0.379981
765	C	0.793793	0.578695	0.379651
766	C	0.80302	0.597153	0.338588
767	C	0.793244	0.577612	0.631738
768	N	0.775537	0.542183	0.633527
769	H	0.799264	0.589655	0.601056
770	H	0.769096	0.529278	0.410269
771	H	0.80039	0.591885	0.4096
772	H	0.714108	0.919243	0.408207
773	H	0.712998	0.917063	0.599664
774	H	0.74429	0.979664	0.599029
775	C	0.599382	0.80081	0.670672
776	C	0.580913	0.791568	0.629616
777	C	0.544142	0.77318	0.62931
778	C	0.525341	0.763784	0.670359
779	N	0.544424	0.773329	0.375767
780	C	0.579853	0.791046	0.377536
781	C	0.988041	0.745135	0.338941
782	C	0.969227	0.735728	0.379981
783	C	0.932457	0.717343	0.379651
784	C	0.914002	0.708112	0.338585
785	C	0.933544	0.717884	0.631734
786	N	0.96897	0.735598	0.633527
787	H	0.921497	0.711861	0.601053
788	H	0.981875	0.742054	0.410269
789	H	0.919269	0.710751	0.4096
790	H	0.59191	0.797077	0.408207
791	H	0.594089	0.798152	0.599664
792	H	0.531489	0.766849	0.599025
793	C	0.636331	0.819281	0.671419
794	C	0.654987	0.856177	0.671372
795	C	0.691881	0.87482	0.671419
796	C	0.71012	0.856166	0.671375
797	C	0.691869	0.819271	0.671422
798	C	0.654976	0.801032	0.671378
799	H	0.736881	0.869541	0.671103
800	H	0.641591	0.774271	0.671099
801	H	0.641609	0.86956	0.671099
802	C	0.877053	0.68964	0.671143
803	C	0.858395	0.652745	0.67119
804	C	0.8215	0.634101	0.671146
805	C	0.803262	0.652758	0.671183
806	C	0.821516	0.689653	0.671143
807	C	0.858408	0.70789	0.67118
808	H	0.776502	0.639383	0.671473
809	H	0.871794	0.734653	0.671473
810	H	0.871771	0.639359	0.671473
811	C	0.710336	0.800792	0.004007
812	C	0.719578	0.791565	0.962951
813	C	0.737968	0.773185	0.962645
814	C	0.747367	0.763784	0.003695
815	N	0.737816	0.773316	0.709102
816	C	0.720097	0.791025	0.710868
817	C	0.766022	0.745143	0.672276
818	C	0.775429	0.735736	0.713316
819	C	0.793819	0.717356	0.712986
820	C	0.803049	0.708132	0.67192
821	C	0.793279	0.717905	0.96507
822	N	0.775562	0.735614	0.966859
823	H	0.799303	0.711882	0.934388
824	H	0.769103	0.742057	0.743607
825	H	0.80041	0.710759	0.742935
826	H	0.714066	0.79705	0.741542
827	H	0.712994	0.798157	0.932996
828	H	0.744302	0.766865	0.93236
829	C	0.710363	0.911771	0.004004
830	C	0.719591	0.930239	0.962951
831	C	0.737969	0.96701	0.962645
832	C	0.747371	0.985812	0.003695
833	N	0.737841	0.96673	0.709102
834	C	0.720132	0.931299	0.710868
835	C	0.766008	0.523112	0.672273
836	C	0.775412	0.541925	0.713316
837	C	0.793793	0.578695	0.712986
838	C	0.80302	0.597153	0.67192
839	C	0.793244	0.577612	0.96507
840	N	0.775537	0.542183	0.966859
841	H	0.799264	0.589655	0.934388
842	H	0.769096	0.529278	0.743604
843	H	0.80039	0.591885	0.742935
844	H	0.714108	0.919243	0.741542
845	H	0.712998	0.917063	0.932996
846	H	0.74429	0.979664	0.93236
847	C	0.599382	0.80081	0.004004
848	C	0.580913	0.791568	0.962951
849	C	0.544142	0.77318	0.962645
850	C	0.525341	0.763784	0.003695
851	N	0.544424	0.773329	0.709102
852	C	0.579853	0.791046	0.710868
853	C	0.988041	0.745135	0.672273
854	C	0.969227	0.735728	0.713316
855	C	0.932457	0.717343	0.712986
856	C	0.914002	0.708112	0.67192
857	C	0.933544	0.717884	0.96507
858	N	0.96897	0.735598	0.966859
859	H	0.921497	0.711861	0.934388
860	H	0.981875	0.742054	0.743604
861	H	0.919269	0.710751	0.742931
862	H	0.59191	0.797077	0.741542
863	H	0.594089	0.798152	0.932996
864	H	0.531489	0.766849	0.93236
