data_C540H432N108_2018-02-15_10:37:45
#******************************************
#
# CIF file created by Zeo++
# Zeo++ is an open source package to
# analyze microporous materials
#
#*******************************************

_cell_length_a		39.3178   
_cell_length_b		39.3178   
_cell_length_c		29.6288   
_cell_angle_alpha		90   
_cell_angle_beta		90   
_cell_angle_gamma		120   

_symmetry_space_group_name_H-M		'P1'
_symmetry_Int_Tables_number		1
_symmetry_cell_setting		Monoclinic

loop_
_symmetry_equiv_pos_as_xyz
'+x,+y,+z'

loop_
_atom_site_label
_atom_site_type_symbol
_atom_site_fract_x
_atom_site_fract_y
_atom_site_fract_z
1	C	0.098001	0.442279	0.006008
2	N	0.128687	0.435201	0.005825
3	C	0.166663	0.465565	0.00591
4	N	0.17348	0.503122	0.00619
5	C	0.143316	0.510655	0.00641
6	N	0.105963	0.480088	0.006357
7	C	0.591731	0.677174	0.006004
8	N	0.598818	0.714941	0.005825
9	C	0.56846	0.722562	0.00591
10	N	0.530901	0.691831	0.006193
11	C	0.523359	0.654131	0.00641
12	N	0.553918	0.647332	0.006354
13	C	0.356803	0.935991	0.006021
14	N	0.319039	0.905307	0.005835
15	C	0.311425	0.867328	0.005923
16	N	0.342164	0.860512	0.0062
17	C	0.379861	0.890673	0.006416
18	N	0.386649	0.928027	0.006361
19	C	0.93302	0.594692	0.006024
20	N	0.902331	0.601767	0.005832
21	C	0.864357	0.5714	0.005916
22	N	0.85754	0.533844	0.006197
23	C	0.887706	0.526314	0.006417
24	N	0.92506	0.556884	0.006365
25	C	0.439293	0.359778	0.006008
26	N	0.432214	0.322013	0.005822
27	C	0.462578	0.3144	0.00591
28	N	0.500134	0.34514	0.006193
29	C	0.507667	0.382838	0.006414
30	N	0.477102	0.389625	0.006358
31	C	0.674187	0.100939	0.006004
32	N	0.711954	0.131622	0.005825
33	C	0.719571	0.1696	0.005906
34	N	0.688835	0.176423	0.006186
35	C	0.651137	0.146263	0.006406
36	N	0.644344	0.108907	0.006353
37	C	0.438903	0.100911	0.005893
38	N	0.432089	0.131757	0.006048
39	C	0.462639	0.169651	0.006294
40	N	0.500099	0.176215	0.006493
41	C	0.507357	0.145875	0.006345
42	N	0.476621	0.108606	0.005994
43	C	0.674537	0.595074	0.005896
44	N	0.712195	0.601888	0.006045
45	C	0.719538	0.571336	0.00629
46	N	0.688644	0.533879	0.006488
47	C	0.651045	0.526619	0.00634
48	N	0.644515	0.557356	0.005991
49	C	0.933053	0.359434	0.005893
50	N	0.90221	0.321778	0.006048
51	C	0.864317	0.314436	0.006286
52	N	0.857751	0.345328	0.006483
53	C	0.888093	0.382929	0.006338
54	N	0.925361	0.38946	0.005994
55	C	0.5921	0.93605	0.005896
56	N	0.598925	0.905213	0.006055
57	C	0.568382	0.867316	0.006291
58	N	0.530919	0.860741	0.006482
59	C	0.523649	0.891072	0.006337
60	N	0.55438	0.928347	0.005991
61	C	0.356477	0.441895	0.005893
62	N	0.318818	0.435081	0.006048
63	C	0.311475	0.46563	0.006295
64	N	0.342369	0.503089	0.006494
65	C	0.379969	0.510349	0.006345
66	N	0.386501	0.479612	0.005991
67	C	0.097937	0.677514	0.005896
68	N	0.128782	0.715176	0.006045
69	C	0.166676	0.722521	0.006288
70	N	0.173242	0.691629	0.006486
71	C	0.142904	0.654028	0.006337
72	N	0.105634	0.647494	0.005991
73	C	0.199523	0.459724	0.006041
74	C	0.218052	0.459589	0.298698
75	C	0.254264	0.459806	0.298174
76	C	0.272721	0.460088	0.339808
77	C	0.254225	0.460209	0.047927
78	H	0.20549	0.460711	0.268854
79	C	0.218086	0.460115	0.046907
80	H	0.20554	0.461545	0.076661
81	C	0.272773	0.460999	0.253839
82	H	0.25487	0.460053	0.225159
83	H	0.277308	0.435871	0.251022
84	H	0.301118	0.487974	0.251154
85	C	0.271186	0.461662	0.093385
86	H	0.298497	0.460905	0.092347
87	H	0.250232	0.436549	0.113414
88	H	0.2771	0.488596	0.110698
89	C	0.574316	0.76127	0.006051
90	C	0.574424	0.779925	0.29871
91	C	0.574204	0.815919	0.298182
92	C	0.573938	0.834112	0.339808
93	C	0.573804	0.815484	0.047923
94	H	0.573297	0.766239	0.268866
95	C	0.573904	0.77944	0.046908
96	H	0.572468	0.765467	0.076664
97	C	0.572995	0.83322	0.253844
98	H	0.573934	0.816256	0.225166
99	H	0.598122	0.862885	0.251013
100	H	0.546019	0.834588	0.251165
101	C	0.572336	0.830985	0.09338
102	H	0.573096	0.859055	0.092343
103	H	0.597442	0.83514	0.113419
104	H	0.545399	0.809963	0.110683
105	C	0.272726	0.834462	0.006058
106	C	0.254068	0.815951	0.298704
107	C	0.218072	0.779743	0.298175
108	C	0.199883	0.761276	0.339801
109	C	0.218499	0.779769	0.047925
110	H	0.267757	0.828518	0.268863
111	C	0.254544	0.815907	0.046919
112	H	0.268517	0.828447	0.076675
113	C	0.20076	0.761238	0.253837
114	H	0.217722	0.779144	0.225159
115	H	0.171097	0.756706	0.251016
116	H	0.199387	0.732891	0.251149
117	C	0.202984	0.762803	0.09338
118	H	0.174914	0.735496	0.092338
119	H	0.198826	0.783757	0.11341
120	H	0.223999	0.756885	0.110696
121	C	0.831493	0.577239	0.006045
122	C	0.812969	0.577374	0.298699
123	C	0.776754	0.577157	0.298172
124	C	0.758294	0.57688	0.339801
125	C	0.776785	0.576751	0.04792
126	H	0.825531	0.576252	0.268856
127	C	0.812927	0.576848	0.046906
128	H	0.825468	0.575412	0.076662
129	C	0.758249	0.575961	0.253835
130	H	0.776152	0.576904	0.225156
131	H	0.753717	0.601092	0.251014
132	H	0.729904	0.548989	0.251151
133	C	0.759824	0.575298	0.093377
134	H	0.732515	0.576058	0.092339
135	H	0.780776	0.600405	0.113409
136	H	0.753907	0.548361	0.110688
137	C	0.456735	0.275698	0.006045
138	C	0.456603	0.257036	0.298698
139	C	0.456818	0.221039	0.298174
140	C	0.457098	0.202863	0.339808
141	C	0.457222	0.221481	0.047926
142	H	0.457725	0.27072	0.268854
143	C	0.457126	0.257526	0.046907
144	H	0.45856	0.271503	0.076661
145	C	0.458011	0.203724	0.253839
146	H	0.457068	0.220683	0.225159
147	H	0.432882	0.174061	0.25102
148	H	0.484986	0.202354	0.251155
149	C	0.458676	0.205974	0.093384
150	H	0.457918	0.177905	0.092346
151	H	0.433567	0.201817	0.113414
152	H	0.485611	0.226994	0.110696
153	C	0.758275	0.202453	0.006048
154	C	0.776926	0.221001	0.298706
155	C	0.812917	0.257218	0.298177
156	C	0.831111	0.275679	0.339804
157	C	0.812483	0.257183	0.047919
158	H	0.76324	0.20844	0.268861
159	C	0.776444	0.221038	0.046904
160	H	0.76247	0.208498	0.076661
161	C	0.83022	0.275729	0.253838
162	H	0.813254	0.257825	0.225161
163	H	0.859884	0.280268	0.251007
164	H	0.831583	0.304072	0.25116
165	C	0.827985	0.274152	0.093376
166	H	0.85605	0.301467	0.092339
167	H	0.832145	0.253205	0.113413
168	H	0.806958	0.280062	0.110681
169	C	0.14935	0.549154	0.339717
170	C	0.14953	0.567541	0.047238
171	C	0.149258	0.603421	0.04785
172	C	0.148787	0.621306	0.006122
173	C	0.148976	0.603145	0.297824
174	H	0.148404	0.553765	0.07702
175	C	0.14916	0.56723	0.29876
176	H	0.147807	0.55328	0.269003
177	C	0.148208	0.620804	0.092206
178	H	0.149297	0.603905	0.12087
179	H	0.121225	0.622143	0.09504
180	H	0.173326	0.650487	0.094893
181	C	0.147728	0.618857	0.25241
182	H	0.148384	0.646871	0.253565
183	H	0.120928	0.59787	0.234855
184	H	0.172991	0.623206	0.232546
185	C	0.484856	0.62167	0.339717
186	C	0.466466	0.603465	0.047239
187	C	0.430583	0.567315	0.04785
188	C	0.412691	0.548951	0.006129
189	C	0.43086	0.567306	0.297832
190	H	0.480245	0.616117	0.07702
191	C	0.466776	0.603403	0.298763
192	H	0.480727	0.615996	0.269005
193	C	0.413203	0.548887	0.092208
194	H	0.430101	0.566875	0.120871
195	H	0.41186	0.520564	0.095044
196	H	0.383521	0.544326	0.094895
197	C	0.415147	0.550346	0.252419
198	H	0.38713	0.522989	0.253574
199	H	0.436131	0.544528	0.234864
200	H	0.4108	0.571259	0.232553
201	C	0.412319	0.884632	0.339707
202	C	0.43054	0.884462	0.047225
203	C	0.466688	0.884726	0.047835
204	C	0.485044	0.885184	0.006109
205	C	0.466687	0.885002	0.297818
206	H	0.417894	0.885592	0.077008
207	C	0.430593	0.884823	0.298755
208	H	0.417998	0.88618	0.268998
209	C	0.485118	0.885777	0.092193
210	H	0.467132	0.884691	0.120856
211	H	0.513444	0.912758	0.095026
212	H	0.489679	0.860656	0.094884
213	C	0.483646	0.88625	0.252405
214	H	0.511002	0.885586	0.25356
215	H	0.489465	0.913052	0.234852
216	H	0.462731	0.86099	0.232539
217	C	0.881679	0.487818	0.339713
218	C	0.881483	0.46943	0.047241
219	C	0.881746	0.433545	0.047851
220	C	0.882216	0.415654	0.006129
221	C	0.882026	0.433815	0.297827
222	H	0.882611	0.483207	0.077021
223	C	0.881851	0.469733	0.298757
224	H	0.883209	0.483686	0.268999
225	C	0.882789	0.416159	0.092208
226	H	0.881701	0.433058	0.120871
227	H	0.909767	0.414811	0.095044
228	H	0.857665	0.386476	0.094892
229	C	0.883269	0.4181	0.252414
230	H	0.882604	0.39008	0.253569
231	H	0.91007	0.439081	0.234855
232	H	0.858007	0.413754	0.232552
233	C	0.546167	0.415301	0.33972
234	C	0.564557	0.43351	0.047242
235	C	0.600438	0.469659	0.047853
236	C	0.618321	0.488015	0.006126
237	C	0.600161	0.469665	0.297826
238	H	0.550779	0.420858	0.077023
239	C	0.564245	0.433569	0.298763
240	H	0.550294	0.420972	0.269006
241	C	0.61782	0.488091	0.092209
242	H	0.600923	0.470106	0.120873
243	H	0.619165	0.516417	0.095042
244	H	0.647502	0.492655	0.094895
245	C	0.615872	0.486626	0.252414
246	H	0.643887	0.513982	0.253568
247	H	0.594885	0.492438	0.234858
248	H	0.620219	0.465709	0.232549
249	C	0.618677	0.152303	0.339713
250	C	0.600473	0.15249	0.047236
251	C	0.564324	0.152226	0.047848
252	C	0.54596	0.151755	0.006126
253	C	0.564314	0.15194	0.29783
254	H	0.613125	0.151362	0.077017
255	C	0.600409	0.152117	0.29876
256	H	0.613002	0.15076	0.269002
257	C	0.545898	0.151179	0.092207
258	H	0.563885	0.152269	0.120869
259	H	0.517573	0.124201	0.095044
260	H	0.541337	0.176302	0.094894
261	C	0.547355	0.150695	0.252417
262	H	0.519999	0.151357	0.253573
263	H	0.541536	0.123893	0.234861
264	H	0.568269	0.175955	0.232552
265	C	0.973218	0.369924	0.005957
266	C	0.99466	0.380309	0.298583
267	C	0.036327	0.401454	0.297961
268	C	0.057557	0.41267	0.339531
269	C	0.036177	0.401719	0.047679
270	H	0.97952	0.374541	0.268791
271	C	0.994526	0.380747	0.046765
272	H	0.979333	0.375252	0.076523
273	C	0.05688	0.413366	0.253568
274	H	0.036762	0.401633	0.224942
275	H	0.077623	0.402673	0.250876
276	H	0.072923	0.445316	0.250641
277	C	0.055003	0.413005	0.093057
278	H	0.086954	0.427715	0.091904
279	H	0.044923	0.386761	0.113852
280	H	0.046798	0.432688	0.10958
281	C	0.664039	0.624748	0.00593
282	C	0.653685	0.635817	0.298548
283	C	0.632546	0.656345	0.29793
284	C	0.62134	0.666331	0.339521
285	C	0.632272	0.655908	0.047685
286	H	0.659459	0.626448	0.268757
287	C	0.653237	0.635221	0.046759
288	H	0.658732	0.625517	0.076512
289	C	0.62064	0.665006	0.253547
290	H	0.632372	0.656627	0.224915
291	H	0.631335	0.696442	0.250873
292	H	0.588689	0.649103	0.250617
293	C	0.620983	0.66345	0.09306
294	H	0.606276	0.680692	0.091905
295	H	0.647225	0.679608	0.113857
296	H	0.601299	0.635561	0.109582
297	C	0.409229	0.060739	0.00593
298	C	0.398156	0.039316	0.298549
299	C	0.377629	0.99765	0.297935
300	C	0.367642	0.97644	0.339514
301	C	0.378074	0.997809	0.047675
302	H	0.407521	0.054459	0.268757
303	C	0.398759	0.03946	0.046755
304	H	0.408467	0.054658	0.076508
305	C	0.36897	0.977081	0.253552
306	H	0.377346	0.997192	0.22492
307	H	0.337533	0.956338	0.250879
308	H	0.384876	0.961037	0.250622
309	C	0.370537	0.978987	0.093055
310	H	0.353288	0.947034	0.091908
311	H	0.354383	0.989075	0.113852
312	H	0.398424	0.987183	0.109572
313	C	0.057766	0.667018	0.00593
314	C	0.036342	0.656669	0.29855
315	C	0.994675	0.635526	0.297938
316	C	0.973469	0.624305	0.339518
317	C	0.994834	0.635238	0.047677
318	H	0.051486	0.662448	0.268759
319	C	0.036486	0.656205	0.046757
320	H	0.051685	0.661696	0.07651
321	C	0.974108	0.62362	0.253555
322	H	0.994215	0.635353	0.224922
323	H	0.953363	0.63431	0.250883
324	H	0.958063	0.591667	0.250624
325	C	0.976013	0.623955	0.093057
326	H	0.944061	0.60925	0.091911
327	H	0.986101	0.650196	0.113856
328	H	0.984212	0.604264	0.109575
329	C	0.366972	0.412218	0.00593
330	C	0.377326	0.401146	0.298552
331	C	0.398466	0.380617	0.297946
332	C	0.409685	0.370614	0.339524
333	C	0.398738	0.381055	0.047671
334	H	0.371556	0.410517	0.26876
335	C	0.377775	0.401745	0.046754
336	H	0.372282	0.411448	0.076508
337	C	0.410371	0.37196	0.253559
338	H	0.398639	0.380338	0.224927
339	H	0.399675	0.340524	0.250882
340	H	0.442323	0.387863	0.250628
341	C	0.410022	0.373516	0.09305
342	H	0.424727	0.356271	0.091902
343	H	0.383779	0.357361	0.113847
344	H	0.42971	0.401404	0.10957
345	C	0.621767	0.976232	0.00596
346	C	0.632825	0.997624	0.298559
347	C	0.653356	0.039291	0.297939
348	C	0.663349	0.060487	0.339531
349	C	0.652944	0.039144	0.047701
350	H	0.623449	0.982473	0.268774
351	C	0.632257	0.997492	0.046793
352	H	0.622558	0.982294	0.076545
353	C	0.66201	0.059854	0.253553
354	H	0.653629	0.03974	0.224924
355	H	0.693449	0.080593	0.250875
356	H	0.646109	0.075903	0.250623
357	C	0.660502	0.057983	0.093071
358	H	0.677741	0.089934	0.091905
359	H	0.67667	0.047907	0.113862
360	H	0.63262	0.049786	0.109607
361	C	0.098001	0.442279	0.339339
362	N	0.128687	0.435201	0.339156
363	C	0.166663	0.465565	0.339241
364	N	0.17348	0.503122	0.339524
365	C	0.143316	0.510655	0.339744
366	N	0.105963	0.480088	0.33969
367	C	0.591731	0.677174	0.339339
368	N	0.598818	0.714941	0.339156
369	C	0.56846	0.722562	0.339244
370	N	0.530901	0.691831	0.339528
371	C	0.523359	0.654131	0.339744
372	N	0.553918	0.647332	0.339686
373	C	0.356803	0.935991	0.339356
374	N	0.319039	0.905307	0.339167
375	C	0.311425	0.867328	0.339254
376	N	0.342164	0.860512	0.339531
377	C	0.379861	0.890673	0.33975
378	N	0.386649	0.928027	0.339693
379	C	0.93302	0.594692	0.339356
380	N	0.902331	0.601767	0.339167
381	C	0.864357	0.5714	0.339251
382	N	0.85754	0.533844	0.339531
383	C	0.887706	0.526314	0.33975
384	N	0.92506	0.556884	0.3397
385	C	0.439293	0.359778	0.339339
386	N	0.432214	0.322013	0.339156
387	C	0.462578	0.3144	0.339244
388	N	0.500134	0.34514	0.339528
389	C	0.507667	0.382838	0.339747
390	N	0.477102	0.389625	0.339693
391	C	0.674187	0.100939	0.339339
392	N	0.711954	0.131622	0.339156
393	C	0.719571	0.1696	0.339241
394	N	0.688835	0.176423	0.339521
395	C	0.651137	0.146263	0.33974
396	N	0.644344	0.108907	0.339686
397	C	0.438903	0.100911	0.339227
398	N	0.432089	0.131757	0.339383
399	C	0.462639	0.169651	0.339629
400	N	0.500099	0.176215	0.339828
401	C	0.507357	0.145875	0.33968
402	N	0.476621	0.108606	0.339325
403	C	0.674537	0.595074	0.339227
404	N	0.712195	0.601888	0.339379
405	C	0.719538	0.571336	0.339622
406	N	0.688644	0.533879	0.339821
407	C	0.651045	0.526619	0.339673
408	N	0.644515	0.557356	0.339325
409	C	0.933053	0.359434	0.339224
410	N	0.90221	0.321778	0.339383
411	C	0.864317	0.314436	0.339619
412	N	0.857751	0.345328	0.339818
413	C	0.888093	0.382929	0.339673
414	N	0.925361	0.38946	0.339329
415	C	0.5921	0.93605	0.339227
416	N	0.598925	0.905213	0.339389
417	C	0.568382	0.867316	0.339626
418	N	0.530919	0.860741	0.339815
419	C	0.523649	0.891072	0.339669
420	N	0.55438	0.928347	0.339325
421	C	0.356477	0.441895	0.339227
422	N	0.318818	0.435081	0.339383
423	C	0.311475	0.46563	0.339629
424	N	0.342369	0.503089	0.339828
425	C	0.379969	0.510349	0.33968
426	N	0.386501	0.479612	0.339325
427	C	0.097937	0.677514	0.339227
428	N	0.128782	0.715176	0.339379
429	C	0.166676	0.722521	0.339622
430	N	0.173242	0.691629	0.339818
431	C	0.142904	0.654028	0.339669
432	N	0.105634	0.647494	0.339325
433	C	0.199523	0.459724	0.339376
434	C	0.218052	0.459589	0.63203
435	C	0.254264	0.459806	0.631507
436	C	0.272721	0.460088	0.673142
437	C	0.254225	0.460209	0.381261
438	H	0.20549	0.460711	0.602188
439	C	0.218086	0.460115	0.380241
440	H	0.20554	0.461545	0.409993
441	C	0.272773	0.460999	0.587172
442	H	0.25487	0.460053	0.55849
443	H	0.277308	0.435871	0.584354
444	H	0.301118	0.487974	0.584489
445	C	0.271186	0.461662	0.426717
446	H	0.298497	0.460905	0.42568
447	H	0.250232	0.436549	0.446748
448	H	0.2771	0.488596	0.444031
449	C	0.574316	0.76127	0.339386
450	C	0.574424	0.779925	0.632044
451	C	0.574204	0.815919	0.631517
452	C	0.573938	0.834112	0.673142
453	C	0.573804	0.815484	0.381257
454	H	0.573297	0.766239	0.602198
455	C	0.573904	0.77944	0.380241
456	H	0.572468	0.765467	0.409996
457	C	0.572995	0.83322	0.587175
458	H	0.573934	0.816256	0.5585
459	H	0.598122	0.862885	0.584347
460	H	0.546019	0.834588	0.584499
461	C	0.572336	0.830985	0.426713
462	H	0.573096	0.859055	0.425677
463	H	0.597442	0.83514	0.446754
464	H	0.545399	0.809963	0.444017
465	C	0.272726	0.834462	0.339393
466	C	0.254068	0.815951	0.632037
467	C	0.218072	0.779743	0.631507
468	C	0.199883	0.761276	0.673136
469	C	0.218499	0.779769	0.381257
470	H	0.267757	0.828518	0.602198
471	C	0.254544	0.815907	0.380252
472	H	0.268517	0.828447	0.41001
473	C	0.20076	0.761238	0.587169
474	H	0.217722	0.779144	0.558494
475	H	0.171097	0.756706	0.58435
476	H	0.199387	0.732891	0.584482
477	C	0.202984	0.762803	0.426713
478	H	0.174914	0.735496	0.42567
479	H	0.198826	0.783757	0.446744
480	H	0.223999	0.756885	0.444031
481	C	0.831493	0.577239	0.339379
482	C	0.812969	0.577374	0.632034
483	C	0.776754	0.577157	0.631504
484	C	0.758294	0.57688	0.673132
485	C	0.776785	0.576751	0.381254
486	H	0.825531	0.576252	0.602191
487	C	0.812927	0.576848	0.380238
488	H	0.825468	0.575412	0.409996
489	C	0.758249	0.575961	0.587169
490	H	0.776152	0.576904	0.55849
491	H	0.753717	0.601092	0.584347
492	H	0.729904	0.548989	0.584485
493	C	0.759824	0.575298	0.42671
494	H	0.732515	0.576058	0.425674
495	H	0.780776	0.600405	0.446741
496	H	0.753907	0.548361	0.444021
497	C	0.456735	0.275698	0.339376
498	C	0.456603	0.257036	0.63203
499	C	0.456818	0.221039	0.631507
500	C	0.457098	0.202863	0.673142
501	C	0.457222	0.221481	0.381261
502	H	0.457725	0.27072	0.602188
503	C	0.457126	0.257526	0.380241
504	H	0.45856	0.271503	0.409993
505	C	0.458011	0.203724	0.587172
506	H	0.457068	0.220683	0.55849
507	H	0.432882	0.174061	0.584354
508	H	0.484986	0.202354	0.584489
509	C	0.458676	0.205974	0.426717
510	H	0.457918	0.177905	0.42568
511	H	0.433567	0.201817	0.446748
512	H	0.485611	0.226994	0.444031
513	C	0.758275	0.202453	0.339383
514	C	0.776926	0.221001	0.63204
515	C	0.812917	0.257218	0.63151
516	C	0.831111	0.275679	0.673136
517	C	0.812483	0.257183	0.381251
518	H	0.76324	0.20844	0.602194
519	C	0.776444	0.221038	0.380238
520	H	0.76247	0.208498	0.409993
521	C	0.83022	0.275729	0.587172
522	H	0.813254	0.257825	0.558494
523	H	0.859884	0.280268	0.58434
524	H	0.831583	0.304072	0.584495
525	C	0.827985	0.274152	0.42671
526	H	0.85605	0.301467	0.42567
527	H	0.832145	0.253205	0.446748
528	H	0.806958	0.280062	0.444014
529	C	0.14935	0.549154	0.673048
530	C	0.14953	0.567541	0.380572
531	C	0.149258	0.603421	0.381183
532	C	0.148787	0.621306	0.339457
533	C	0.148976	0.603145	0.631156
534	H	0.148404	0.553765	0.410354
535	C	0.14916	0.56723	0.632094
536	H	0.147807	0.55328	0.602336
537	C	0.148208	0.620804	0.425539
538	H	0.149297	0.603905	0.454203
539	H	0.121225	0.622143	0.428374
540	H	0.173326	0.650487	0.428225
541	C	0.147728	0.618857	0.585744
542	H	0.148384	0.646871	0.586898
543	H	0.120928	0.59787	0.568187
544	H	0.172991	0.623206	0.565878
545	C	0.484856	0.62167	0.673051
546	C	0.466466	0.603465	0.380572
547	C	0.430583	0.567315	0.381183
548	C	0.412691	0.548951	0.339464
549	C	0.43086	0.567306	0.631166
550	H	0.480245	0.616117	0.410354
551	C	0.466776	0.603403	0.632098
552	H	0.480727	0.615996	0.60234
553	C	0.413203	0.548887	0.425542
554	H	0.430101	0.566875	0.454203
555	H	0.41186	0.520564	0.428377
556	H	0.383521	0.544326	0.428229
557	C	0.415147	0.550346	0.585751
558	H	0.38713	0.522989	0.586905
559	H	0.436131	0.544528	0.568197
560	H	0.4108	0.571259	0.565889
561	C	0.412319	0.884632	0.673041
562	C	0.43054	0.884462	0.380559
563	C	0.466688	0.884726	0.38117
564	C	0.485044	0.885184	0.339443
565	C	0.466687	0.885002	0.631153
566	H	0.417894	0.885592	0.410341
567	C	0.430593	0.884823	0.632088
568	H	0.417998	0.88618	0.602333
569	C	0.485118	0.885777	0.425525
570	H	0.467132	0.884691	0.45419
571	H	0.513444	0.912758	0.42836
572	H	0.489679	0.860656	0.428218
573	C	0.483646	0.88625	0.585737
574	H	0.511002	0.885586	0.586892
575	H	0.489465	0.913052	0.568184
576	H	0.462731	0.86099	0.565872
577	C	0.881679	0.487818	0.673048
578	C	0.881483	0.46943	0.380576
579	C	0.881746	0.433545	0.381187
580	C	0.882216	0.415654	0.33946
581	C	0.882026	0.433815	0.631159
582	H	0.882611	0.483207	0.410354
583	C	0.881851	0.469733	0.632091
584	H	0.883209	0.483686	0.602333
585	C	0.882789	0.416159	0.425542
586	H	0.881701	0.433058	0.454203
587	H	0.909767	0.414811	0.428377
588	H	0.857665	0.386476	0.428225
589	C	0.883269	0.4181	0.585748
590	H	0.882604	0.39008	0.586902
591	H	0.91007	0.439081	0.568187
592	H	0.858007	0.413754	0.565885
593	C	0.546167	0.415301	0.673055
594	C	0.564557	0.43351	0.380576
595	C	0.600438	0.469659	0.381187
596	C	0.618321	0.488015	0.33946
597	C	0.600161	0.469665	0.631159
598	H	0.550779	0.420858	0.410357
599	C	0.564245	0.433569	0.632098
600	H	0.550294	0.420972	0.60234
601	C	0.61782	0.488091	0.425542
602	H	0.600923	0.470106	0.454207
603	H	0.619165	0.516417	0.428377
604	H	0.647502	0.492655	0.428229
605	C	0.615872	0.486626	0.585748
606	H	0.643887	0.513982	0.586902
607	H	0.594885	0.492438	0.56819
608	H	0.620219	0.465709	0.565882
609	C	0.618677	0.152303	0.673048
610	C	0.600473	0.15249	0.380569
611	C	0.564324	0.152226	0.381183
612	C	0.54596	0.151755	0.33946
613	C	0.564314	0.15194	0.631163
614	H	0.613125	0.151362	0.410351
615	C	0.600409	0.152117	0.632094
616	H	0.613002	0.15076	0.602336
617	C	0.545898	0.151179	0.425539
618	H	0.563885	0.152269	0.454203
619	H	0.517573	0.124201	0.428377
620	H	0.541337	0.176302	0.428229
621	C	0.547355	0.150695	0.585751
622	H	0.519999	0.151357	0.586905
623	H	0.541536	0.123893	0.568194
624	H	0.568269	0.175955	0.565885
625	C	0.973218	0.369924	0.339291
626	C	0.99466	0.380309	0.631916
627	C	0.036327	0.401454	0.631294
628	C	0.057557	0.41267	0.672866
629	C	0.036177	0.401719	0.381011
630	H	0.97952	0.374541	0.602124
631	C	0.994526	0.380747	0.3801
632	H	0.979333	0.375252	0.409858
633	C	0.05688	0.413366	0.586902
634	H	0.036762	0.401633	0.558274
635	H	0.077623	0.402673	0.584209
636	H	0.072923	0.445316	0.583972
637	C	0.055003	0.413005	0.426389
638	H	0.086954	0.427715	0.425238
639	H	0.044923	0.386761	0.447186
640	H	0.046798	0.432688	0.442914
641	C	0.664039	0.624748	0.339261
642	C	0.653685	0.635817	0.631882
643	C	0.632546	0.656345	0.631264
644	C	0.62134	0.666331	0.672855
645	C	0.632272	0.655908	0.381018
646	H	0.659459	0.626448	0.60209
647	C	0.653237	0.635221	0.380093
648	H	0.658732	0.625517	0.409844
649	C	0.62064	0.665006	0.586882
650	H	0.632372	0.656627	0.558247
651	H	0.631335	0.696442	0.584205
652	H	0.588689	0.649103	0.583949
653	C	0.620983	0.66345	0.426393
654	H	0.606276	0.680692	0.425238
655	H	0.647225	0.679608	0.44719
656	H	0.601299	0.635561	0.442917
657	C	0.409229	0.060739	0.339261
658	C	0.398156	0.039316	0.631882
659	C	0.377629	0.99765	0.631267
660	C	0.367642	0.97644	0.672849
661	C	0.378074	0.997809	0.381008
662	H	0.407521	0.054459	0.60209
663	C	0.398759	0.03946	0.38009
664	H	0.408467	0.054658	0.409841
665	C	0.36897	0.977081	0.586885
666	H	0.377346	0.997192	0.558254
667	H	0.337533	0.956338	0.584212
668	H	0.384876	0.961037	0.583955
669	C	0.370537	0.978987	0.426389
670	H	0.353288	0.947034	0.425242
671	H	0.354383	0.989075	0.447186
672	H	0.398424	0.987183	0.442907
673	C	0.057766	0.667018	0.339264
674	C	0.036342	0.656669	0.631885
675	C	0.994675	0.635526	0.631271
676	C	0.973469	0.624305	0.672852
677	C	0.994834	0.635238	0.381011
678	H	0.051486	0.662448	0.602093
679	C	0.036486	0.656205	0.38009
680	H	0.051685	0.661696	0.409844
681	C	0.974108	0.62362	0.586888
682	H	0.994215	0.635353	0.558254
683	H	0.953363	0.63431	0.584215
684	H	0.958063	0.591667	0.583959
685	C	0.976013	0.623955	0.426393
686	H	0.944061	0.60925	0.425245
687	H	0.986101	0.650196	0.44719
688	H	0.984212	0.604264	0.442907
689	C	0.366972	0.412218	0.339261
690	C	0.377326	0.401146	0.631885
691	C	0.398466	0.380617	0.631278
692	C	0.409685	0.370614	0.672859
693	C	0.398738	0.381055	0.381004
694	H	0.371556	0.410517	0.602093
695	C	0.377775	0.401745	0.380086
696	H	0.372282	0.411448	0.409841
697	C	0.410371	0.37196	0.586892
698	H	0.398639	0.380338	0.558261
699	H	0.399675	0.340524	0.584215
700	H	0.442323	0.387863	0.583962
701	C	0.410022	0.373516	0.426382
702	H	0.424727	0.356271	0.425235
703	H	0.383779	0.357361	0.44718
704	H	0.42971	0.401404	0.442903
705	C	0.621767	0.976232	0.339295
706	C	0.632825	0.997624	0.631892
707	C	0.653356	0.039291	0.631274
708	C	0.663349	0.060487	0.672862
709	C	0.652944	0.039144	0.381035
710	H	0.623449	0.982473	0.602107
711	C	0.632257	0.997492	0.380127
712	H	0.622558	0.982294	0.409878
713	C	0.66201	0.059854	0.586888
714	H	0.653629	0.03974	0.558257
715	H	0.693449	0.080593	0.584209
716	H	0.646109	0.075903	0.583955
717	C	0.660502	0.057983	0.426406
718	H	0.677741	0.089934	0.425238
719	H	0.67667	0.047907	0.447197
720	H	0.63262	0.049786	0.442941
721	C	0.098001	0.442279	0.672673
722	N	0.128687	0.435201	0.672491
723	C	0.166663	0.465565	0.672575
724	N	0.17348	0.503122	0.672855
725	C	0.143316	0.510655	0.673078
726	N	0.105963	0.480088	0.673024
727	C	0.591731	0.677174	0.67267
728	N	0.598818	0.714941	0.672491
729	C	0.56846	0.722562	0.672575
730	N	0.530901	0.691831	0.672859
731	C	0.523359	0.654131	0.673078
732	N	0.553918	0.647332	0.673021
733	C	0.356803	0.935991	0.672687
734	N	0.319039	0.905307	0.672501
735	C	0.311425	0.867328	0.672589
736	N	0.342164	0.860512	0.672866
737	C	0.379861	0.890673	0.673082
738	N	0.386649	0.928027	0.673028
739	C	0.93302	0.594692	0.67269
740	N	0.902331	0.601767	0.672498
741	C	0.864357	0.5714	0.672582
742	N	0.85754	0.533844	0.672866
743	C	0.887706	0.526314	0.673085
744	N	0.92506	0.556884	0.673031
745	C	0.439293	0.359778	0.672673
746	N	0.432214	0.322013	0.672491
747	C	0.462578	0.3144	0.672575
748	N	0.500134	0.34514	0.672859
749	C	0.507667	0.382838	0.673082
750	N	0.477102	0.389625	0.673024
751	C	0.674187	0.100939	0.672673
752	N	0.711954	0.131622	0.672491
753	C	0.719571	0.1696	0.672572
754	N	0.688835	0.176423	0.672855
755	C	0.651137	0.146263	0.673071
756	N	0.644344	0.108907	0.673021
757	C	0.438903	0.100911	0.672562
758	N	0.432089	0.131757	0.672714
759	C	0.462639	0.169651	0.67296
760	N	0.500099	0.176215	0.673159
761	C	0.507357	0.145875	0.673011
762	N	0.476621	0.108606	0.67266
763	C	0.674537	0.595074	0.672562
764	N	0.712195	0.601888	0.672714
765	C	0.719538	0.571336	0.672957
766	N	0.688644	0.533879	0.673156
767	C	0.651045	0.526619	0.673007
768	N	0.644515	0.557356	0.67266
769	C	0.933053	0.359434	0.672558
770	N	0.90221	0.321778	0.672717
771	C	0.864317	0.314436	0.672953
772	N	0.857751	0.345328	0.673149
773	C	0.888093	0.382929	0.673004
774	N	0.925361	0.38946	0.67266
775	C	0.5921	0.93605	0.672562
776	N	0.598925	0.905213	0.672724
777	C	0.568382	0.867316	0.672957
778	N	0.530919	0.860741	0.673149
779	C	0.523649	0.891072	0.673004
780	N	0.55438	0.928347	0.67266
781	C	0.356477	0.441895	0.672558
782	N	0.318818	0.435081	0.672714
783	C	0.311475	0.46563	0.672963
784	N	0.342369	0.503089	0.673163
785	C	0.379969	0.510349	0.673011
786	N	0.386501	0.479612	0.67266
787	C	0.097937	0.677514	0.672562
788	N	0.128782	0.715176	0.672714
789	C	0.166676	0.722521	0.672953
790	N	0.173242	0.691629	0.673152
791	C	0.142904	0.654028	0.673004
792	N	0.105634	0.647494	0.672656
793	C	0.199523	0.459724	0.67271
794	C	0.218052	0.459589	0.965365
795	C	0.254264	0.459806	0.964842
796	C	0.272721	0.460088	0.006474
797	C	0.254225	0.460209	0.714595
798	H	0.20549	0.460711	0.935519
799	C	0.218086	0.460115	0.713573
800	H	0.20554	0.461545	0.743327
801	C	0.272773	0.460999	0.920506
802	H	0.25487	0.460053	0.891825
803	H	0.277308	0.435871	0.917688
804	H	0.301118	0.487974	0.91782
805	C	0.271186	0.461662	0.760051
806	H	0.298497	0.460905	0.759015
807	H	0.250232	0.436549	0.780079
808	H	0.2771	0.488596	0.777365
809	C	0.574316	0.76127	0.67272
810	C	0.574424	0.779925	0.965378
811	C	0.574204	0.815919	0.964848
812	C	0.573938	0.834112	0.006474
813	C	0.573804	0.815484	0.714588
814	H	0.573297	0.766239	0.935532
815	C	0.573904	0.77944	0.713576
816	H	0.572468	0.765467	0.743331
817	C	0.572995	0.83322	0.92051
818	H	0.573934	0.816256	0.891832
819	H	0.598122	0.862885	0.917678
820	H	0.546019	0.834588	0.917833
821	C	0.572336	0.830985	0.760048
822	H	0.573096	0.859055	0.759011
823	H	0.597442	0.83514	0.780086
824	H	0.545399	0.809963	0.777348
825	C	0.272726	0.834462	0.672724
826	C	0.254068	0.815951	0.965371
827	C	0.218072	0.779743	0.964842
828	C	0.199883	0.761276	0.006468
829	C	0.218499	0.779769	0.714592
830	H	0.267757	0.828518	0.935529
831	C	0.254544	0.815907	0.713586
832	H	0.268517	0.828447	0.743341
833	C	0.20076	0.761238	0.920503
834	H	0.217722	0.779144	0.891825
835	H	0.171097	0.756706	0.917681
836	H	0.199387	0.732891	0.917816
837	C	0.202984	0.762803	0.760048
838	H	0.174914	0.735496	0.759005
839	H	0.198826	0.783757	0.780075
840	H	0.223999	0.756885	0.777362
841	C	0.831493	0.577239	0.672714
842	C	0.812969	0.577374	0.965365
843	C	0.776754	0.577157	0.964838
844	C	0.758294	0.57688	0.006466
845	C	0.776785	0.576751	0.714585
846	H	0.825531	0.576252	0.935522
847	C	0.812927	0.576848	0.713573
848	H	0.825468	0.575412	0.743327
849	C	0.758249	0.575961	0.920503
850	H	0.776152	0.576904	0.891821
851	H	0.753717	0.601092	0.917681
852	H	0.729904	0.548989	0.917816
853	C	0.759824	0.575298	0.760044
854	H	0.732515	0.576058	0.759005
855	H	0.780776	0.600405	0.780075
856	H	0.753907	0.548361	0.777355
857	C	0.456735	0.275698	0.67271
858	C	0.456603	0.257036	0.965365
859	C	0.456818	0.221039	0.964842
860	C	0.457098	0.202863	0.006474
861	C	0.457222	0.221481	0.714592
862	H	0.457725	0.27072	0.935522
863	C	0.457126	0.257526	0.713573
864	H	0.45856	0.271503	0.743327
865	C	0.458011	0.203724	0.920506
866	H	0.457068	0.220683	0.891825
867	H	0.432882	0.174061	0.917688
868	H	0.484986	0.202354	0.91782
869	C	0.458676	0.205974	0.760051
870	H	0.457918	0.177905	0.759011
871	H	0.433567	0.201817	0.780082
872	H	0.485611	0.226994	0.777362
873	C	0.758275	0.202453	0.672717
874	C	0.776926	0.221001	0.965371
875	C	0.812917	0.257218	0.964845
876	C	0.831111	0.275679	0.00647
877	C	0.812483	0.257183	0.714585
878	H	0.76324	0.20844	0.935529
879	C	0.776444	0.221038	0.713573
880	H	0.76247	0.208498	0.743327
881	C	0.83022	0.275729	0.920506
882	H	0.813254	0.257825	0.891828
883	H	0.859884	0.280268	0.917675
884	H	0.831583	0.304072	0.917826
885	C	0.827985	0.274152	0.760044
886	H	0.85605	0.301467	0.759005
887	H	0.832145	0.253205	0.780079
888	H	0.806958	0.280062	0.777348
889	C	0.14935	0.549154	0.006383
890	C	0.14953	0.567541	0.713907
891	C	0.149258	0.603421	0.714518
892	C	0.148787	0.621306	0.672791
893	C	0.148976	0.603145	0.964491
894	H	0.148404	0.553765	0.743685
895	C	0.14916	0.56723	0.965425
896	H	0.147807	0.55328	0.935671
897	C	0.148208	0.620804	0.758873
898	H	0.149297	0.603905	0.787538
899	H	0.121225	0.622143	0.761708
900	H	0.173326	0.650487	0.76156
901	C	0.147728	0.618857	0.919079
902	H	0.148384	0.646871	0.920233
903	H	0.120928	0.59787	0.901521
904	H	0.172991	0.623206	0.899213
905	C	0.484856	0.62167	0.006384
906	C	0.466466	0.603465	0.713907
907	C	0.430583	0.567315	0.714518
908	C	0.412691	0.548951	0.672795
909	C	0.43086	0.567306	0.964497
910	H	0.480245	0.616117	0.743688
911	C	0.466776	0.603403	0.965429
912	H	0.480727	0.615996	0.935671
913	C	0.413203	0.548887	0.758876
914	H	0.430101	0.566875	0.787538
915	H	0.41186	0.520564	0.761712
916	H	0.383521	0.544326	0.761563
917	C	0.415147	0.550346	0.919085
918	H	0.38713	0.522989	0.92024
919	H	0.436131	0.544528	0.901532
920	H	0.4108	0.571259	0.89922
921	C	0.412319	0.884632	0.006374
922	C	0.43054	0.884462	0.713893
923	C	0.466688	0.884726	0.714501
924	C	0.485044	0.885184	0.672778
925	C	0.466687	0.885002	0.964484
926	H	0.417894	0.885592	0.743675
927	C	0.430593	0.884823	0.965422
928	H	0.417998	0.88618	0.935664
929	C	0.485118	0.885777	0.75886
930	H	0.467132	0.884691	0.787524
931	H	0.513444	0.912758	0.761691
932	H	0.489679	0.860656	0.761549
933	C	0.483646	0.88625	0.919072
934	H	0.511002	0.885586	0.920226
935	H	0.489465	0.913052	0.901518
936	H	0.462731	0.86099	0.899206
937	C	0.881679	0.487818	0.006379
938	C	0.881483	0.46943	0.713907
939	C	0.881746	0.433545	0.714518
940	C	0.882216	0.415654	0.672795
941	C	0.882026	0.433815	0.964494
942	H	0.882611	0.483207	0.743688
943	C	0.881851	0.469733	0.965422
944	H	0.883209	0.483686	0.935667
945	C	0.882789	0.416159	0.758873
946	H	0.881701	0.433058	0.787538
947	H	0.909767	0.414811	0.761712
948	H	0.857665	0.386476	0.76156
949	C	0.883269	0.4181	0.919082
950	H	0.882604	0.39008	0.920236
951	H	0.91007	0.439081	0.901521
952	H	0.858007	0.413754	0.89922
953	C	0.546167	0.415301	0.006386
954	C	0.564557	0.43351	0.71391
955	C	0.600438	0.469659	0.714521
956	C	0.618321	0.488015	0.672795
957	C	0.600161	0.469665	0.964494
958	H	0.550779	0.420858	0.743688
959	C	0.564245	0.433569	0.965429
960	H	0.550294	0.420972	0.935674
961	C	0.61782	0.488091	0.758876
962	H	0.600923	0.470106	0.787541
963	H	0.619165	0.516417	0.761708
964	H	0.647502	0.492655	0.761563
965	C	0.615872	0.486626	0.919079
966	H	0.643887	0.513982	0.920233
967	H	0.594885	0.492438	0.901525
968	H	0.620219	0.465709	0.899216
969	C	0.618677	0.152303	0.00638
970	C	0.600473	0.15249	0.713903
971	C	0.564324	0.152226	0.714514
972	C	0.54596	0.151755	0.672795
973	C	0.564314	0.15194	0.964497
974	H	0.613125	0.151362	0.743685
975	C	0.600409	0.152117	0.965425
976	H	0.613002	0.15076	0.935667
977	C	0.545898	0.151179	0.758873
978	H	0.563885	0.152269	0.787534
979	H	0.517573	0.124201	0.761712
980	H	0.541337	0.176302	0.76156
981	C	0.547355	0.150695	0.919085
982	H	0.519999	0.151357	0.92024
983	H	0.541536	0.123893	0.901528
984	H	0.568269	0.175955	0.89922
985	C	0.973218	0.369924	0.672626
986	C	0.99466	0.380309	0.96525
987	C	0.036327	0.401454	0.964629
988	C	0.057557	0.41267	0.006197
989	C	0.036177	0.401719	0.714345
990	H	0.97952	0.374541	0.935458
991	C	0.994526	0.380747	0.713431
992	H	0.979333	0.375252	0.743189
993	C	0.05688	0.413366	0.920233
994	H	0.036762	0.401633	0.891609
995	H	0.077623	0.402673	0.917543
996	H	0.072923	0.445316	0.917307
997	C	0.055003	0.413005	0.759724
998	H	0.086954	0.427715	0.758573
999	H	0.044923	0.386761	0.780518
1000	H	0.046798	0.432688	0.776248
1001	C	0.664039	0.624748	0.672596
1002	C	0.653685	0.635817	0.965213
1003	C	0.632546	0.656345	0.964599
1004	C	0.62134	0.666331	0.00619
1005	C	0.632272	0.655908	0.714352
1006	H	0.659459	0.626448	0.935424
1007	C	0.653237	0.635221	0.713427
1008	H	0.658732	0.625517	0.743179
1009	C	0.62064	0.665006	0.920213
1010	H	0.632372	0.656627	0.891582
1011	H	0.631335	0.696442	0.91754
1012	H	0.588689	0.649103	0.917283
1013	C	0.620983	0.66345	0.759727
1014	H	0.606276	0.680692	0.758573
1015	H	0.647225	0.679608	0.780524
1016	H	0.601299	0.635561	0.776248
1017	C	0.409229	0.060739	0.672596
1018	C	0.398156	0.039316	0.965216
1019	C	0.377629	0.99765	0.964602
1020	C	0.367642	0.97644	0.006183
1021	C	0.378074	0.997809	0.714342
1022	H	0.407521	0.054459	0.935424
1023	C	0.398759	0.03946	0.713421
1024	H	0.408467	0.054658	0.743175
1025	C	0.36897	0.977081	0.920219
1026	H	0.377346	0.997192	0.891585
1027	H	0.337533	0.956338	0.917546
1028	H	0.384876	0.961037	0.91729
1029	C	0.370537	0.978987	0.75972
1030	H	0.353288	0.947034	0.758576
1031	H	0.354383	0.989075	0.780521
1032	H	0.398424	0.987183	0.776238
1033	C	0.057766	0.667018	0.672596
1034	C	0.036342	0.656669	0.965216
1035	C	0.994675	0.635526	0.964605
1036	C	0.973469	0.624305	0.006186
1037	C	0.994834	0.635238	0.714345
1038	H	0.051486	0.662448	0.935424
1039	C	0.036486	0.656205	0.713424
1040	H	0.051685	0.661696	0.743175
1041	C	0.974108	0.62362	0.920223
1042	H	0.994215	0.635353	0.891588
1043	H	0.953363	0.63431	0.91755
1044	H	0.958063	0.591667	0.91729
1045	C	0.976013	0.623955	0.759724
1046	H	0.944061	0.60925	0.758576
1047	H	0.986101	0.650196	0.780521
1048	H	0.984212	0.604264	0.776241
1049	C	0.366972	0.412218	0.672596
1050	C	0.377326	0.401146	0.96522
1051	C	0.398466	0.380617	0.964612
1052	C	0.409685	0.370614	0.00619
1053	C	0.398738	0.381055	0.714339
1054	H	0.371556	0.410517	0.935428
1055	C	0.377775	0.401745	0.713421
1056	H	0.372282	0.411448	0.743175
1057	C	0.410371	0.37196	0.920226
1058	H	0.398639	0.380338	0.891595
1059	H	0.399675	0.340524	0.91755
1060	H	0.442323	0.387863	0.917293
1061	C	0.410022	0.373516	0.759717
1062	H	0.424727	0.356271	0.758569
1063	H	0.383779	0.357361	0.780514
1064	H	0.42971	0.401404	0.776238
1065	C	0.621767	0.976232	0.672626
1066	C	0.632825	0.997624	0.965226
1067	C	0.653356	0.039291	0.964605
1068	C	0.663349	0.060487	0.006197
1069	C	0.652944	0.039144	0.714369
1070	H	0.623449	0.982473	0.935441
1071	C	0.632257	0.997492	0.713461
1072	H	0.622558	0.982294	0.743213
1073	C	0.66201	0.059854	0.920219
1074	H	0.653629	0.03974	0.891592
1075	H	0.693449	0.080593	0.917543
1076	H	0.646109	0.075903	0.91729
1077	C	0.660502	0.057983	0.759737
1078	H	0.677741	0.089934	0.758573
1079	H	0.67667	0.047907	0.780528
1080	H	0.63262	0.049786	0.776275
