data_C648H432N72_2018-02-15_10:39:20
#******************************************
#
# CIF file created by Zeo++
# Zeo++ is an open source package to
# analyze microporous materials
#
#*******************************************

_cell_length_a		44.1297   
_cell_length_b		44.1297   
_cell_length_c		29.8142   
_cell_angle_alpha		90   
_cell_angle_beta		90   
_cell_angle_gamma		120   

_symmetry_space_group_name_H-M		'P1'
_symmetry_Int_Tables_number		1
_symmetry_cell_setting		Monoclinic

loop_
_symmetry_equiv_pos_as_xyz
'+x,+y,+z'

loop_
_atom_site_label
_atom_site_type_symbol
_atom_site_fract_x
_atom_site_fract_y
_atom_site_fract_z
1	C	0.023192	0.262375	0.003578
2	N	0.041857	0.271708	0.298093
3	C	0.041635	0.271598	0.044941
4	C	0.022719	0.262139	0.085618
5	H	0.035566	0.268563	0.115739
6	C	0.023192	0.262375	0.336913
7	N	0.041857	0.271708	0.631427
8	C	0.041635	0.271598	0.378276
9	C	0.022719	0.262139	0.418951
10	H	0.035566	0.268563	0.449071
11	C	0.023192	0.262375	0.670244
12	N	0.041857	0.271708	0.964761
13	C	0.041635	0.271598	0.71161
14	C	0.022719	0.262139	0.752285
15	H	0.035566	0.268563	0.782405
16	C	0.023193	0.762377	0.003578
17	N	0.041857	0.77171	0.298093
18	C	0.041635	0.771598	0.044941
19	C	0.022718	0.762139	0.085618
20	H	0.035565	0.768562	0.115739
21	C	0.023193	0.762377	0.336913
22	N	0.041857	0.77171	0.631427
23	C	0.041635	0.771598	0.378276
24	C	0.022718	0.762139	0.418951
25	H	0.035565	0.768562	0.449071
26	C	0.023193	0.762377	0.670244
27	N	0.041857	0.77171	0.964761
28	C	0.041635	0.771598	0.71161
29	C	0.022718	0.762139	0.752285
30	H	0.035565	0.768562	0.782405
31	C	0.097042	0.299303	0.002987
32	C	0.077453	0.289509	0.295834
33	C	0.078598	0.290082	0.044077
34	H	0.092227	0.296896	0.073686
35	C	0.093922	0.297741	0.250899
36	H	0.074282	0.287921	0.224288
37	C	0.097042	0.299303	0.336319
38	C	0.077453	0.289509	0.629169
39	C	0.078598	0.290082	0.37741
40	H	0.092227	0.296896	0.40702
41	C	0.093922	0.297741	0.584231
42	H	0.074282	0.287921	0.557623
43	C	0.097042	0.299303	0.669653
44	C	0.077453	0.289509	0.9625
45	C	0.078598	0.290082	0.710744
46	H	0.092227	0.296896	0.740354
47	C	0.093922	0.297741	0.917565
48	H	0.074282	0.287921	0.890957
49	C	0.097043	0.799305	0.002987
50	C	0.077452	0.789508	0.295834
51	C	0.078598	0.790081	0.044077
52	H	0.092226	0.796895	0.073686
53	C	0.093922	0.797743	0.250899
54	H	0.074281	0.78792	0.224288
55	C	0.097043	0.799305	0.336319
56	C	0.077452	0.789508	0.629169
57	C	0.078598	0.790081	0.37741
58	H	0.092226	0.796895	0.40702
59	C	0.093922	0.797743	0.584231
60	H	0.074281	0.78792	0.557623
61	C	0.097043	0.799305	0.669653
62	C	0.077452	0.789508	0.9625
63	C	0.078598	0.790081	0.710744
64	H	0.092226	0.796895	0.740354
65	C	0.093922	0.797743	0.917565
66	H	0.074281	0.78792	0.890957
67	C	0.134207	0.317883	0.003546
68	H	0.139508	0.272794	0.003387
69	H	0.139518	0.368279	0.003385
70	H	0.110194	0.285733	0.246933
71	H	0.110194	0.326021	0.246931
72	C	0.134207	0.317883	0.336879
73	H	0.139508	0.272794	0.336722
74	H	0.139518	0.368279	0.336718
75	H	0.110194	0.285733	0.580266
76	H	0.110194	0.326021	0.580263
77	C	0.134207	0.317883	0.670213
78	H	0.139508	0.272794	0.670056
79	H	0.139518	0.368279	0.670052
80	H	0.110194	0.285733	0.9136
81	H	0.110194	0.326021	0.913597
82	C	0.134207	0.817883	0.003546
83	H	0.139508	0.772793	0.003387
84	H	0.139516	0.868279	0.003385
85	H	0.110194	0.785732	0.246933
86	H	0.110193	0.82602	0.246931
87	C	0.134207	0.817883	0.336879
88	H	0.139508	0.772793	0.336722
89	H	0.139516	0.868279	0.336718
90	H	0.110194	0.785732	0.580266
91	H	0.110193	0.82602	0.580263
92	C	0.134207	0.817883	0.670213
93	H	0.139508	0.772793	0.670056
94	H	0.139516	0.868279	0.670052
95	H	0.110194	0.785732	0.9136
96	H	0.110193	0.82602	0.913597
97	C	0.152925	0.354867	0.003622
98	C	0.189907	0.373578	0.003545
99	C	0.208171	0.354861	0.003622
100	C	0.189901	0.317878	0.003548
101	C	0.15292	0.299614	0.003635
102	H	0.234991	0.368269	0.003386
103	C	0.375135	0.188344	0.002115
104	C	0.356421	0.15136	0.002159
105	C	0.319436	0.132652	0.002115
106	C	0.301167	0.151365	0.002169
107	C	0.319443	0.18835	0.002115
108	C	0.356427	0.20662	0.002169
109	H	0.274347	0.137957	0.001934
110	H	0.369839	0.23344	0.001934
111	H	0.36983	0.137948	0.001934
112	C	0.300869	0.206928	0.334975
113	C	0.290892	0.216903	0.294729
114	N	0.273108	0.234683	0.297606
115	C	0.263932	0.243858	0.336658
116	C	0.273332	0.234461	0.044406
117	C	0.291807	0.21599	0.042986
118	H	0.298736	0.209061	0.072424
119	C	0.24541	0.262372	0.003581
120	C	0.208482	0.299295	0.002991
121	N	0.236077	0.271706	0.298096
122	C	0.218278	0.289501	0.295836
123	C	0.217703	0.290072	0.04408
124	C	0.236187	0.271593	0.044944
125	C	0.245646	0.262137	0.085621
126	C	0.264051	0.243738	0.085355
127	H	0.239222	0.268558	0.115742
128	H	0.270607	0.237184	0.115288
129	H	0.210888	0.296885	0.073689
130	C	0.298281	0.209513	0.248808
131	H	0.312544	0.195256	0.248392
132	H	0.313878	0.234118	0.230879
133	H	0.273676	0.193911	0.230882
134	C	0.210043	0.297736	0.250901
135	H	0.219864	0.287916	0.224291
136	H	0.222051	0.326016	0.246934
137	H	0.181763	0.285725	0.246933
138	C	0.300858	0.095499	0.334973
139	C	0.290884	0.075547	0.294726
140	N	0.273105	0.039983	0.297603
141	C	0.263929	0.021631	0.336655
142	C	0.273325	0.040428	0.044403
143	C	0.291795	0.077374	0.042982
144	H	0.298725	0.091232	0.072421
145	C	0.245412	0.484593	0.003577
146	C	0.208492	0.410744	0.002987
147	N	0.236081	0.465928	0.298092
148	C	0.218287	0.430335	0.295833
149	C	0.217715	0.429189	0.044076
150	C	0.236193	0.466151	0.04494
151	C	0.245649	0.485066	0.085617
152	C	0.264048	0.021871	0.085351
153	H	0.239228	0.472221	0.115738
154	H	0.270601	0.034981	0.115284
155	H	0.2109	0.415559	0.073685
156	C	0.298271	0.090326	0.248805
157	H	0.31253	0.118847	0.24839
158	H	0.273668	0.081318	0.230876
159	H	0.313875	0.081325	0.230879
160	C	0.210051	0.413863	0.250898
161	H	0.21987	0.433503	0.224287
162	H	0.181772	0.397591	0.246931
163	H	0.222061	0.397593	0.246931
164	C	0.412287	0.206919	0.334974
165	C	0.432239	0.216896	0.294727
166	N	0.467804	0.234679	0.297604
167	C	0.486156	0.243856	0.336655
168	C	0.467359	0.234456	0.044404
169	C	0.430413	0.215982	0.042983
170	H	0.416554	0.209052	0.072422
171	C	0.485917	0.243736	0.085352
172	H	0.472807	0.23718	0.115285
173	C	0.417459	0.209508	0.248806
174	H	0.388939	0.195246	0.248391
175	H	0.426465	0.193909	0.230877
176	H	0.426464	0.234113	0.230881
177	C	0.152925	0.354867	0.336956
178	C	0.189907	0.373578	0.336879
179	C	0.208171	0.354861	0.336956
180	C	0.189901	0.317878	0.336883
181	C	0.15292	0.299614	0.33697
182	H	0.234991	0.368269	0.336718
183	C	0.375135	0.188344	0.335447
184	C	0.356421	0.15136	0.335491
185	C	0.319436	0.132652	0.335447
186	C	0.301167	0.151365	0.335501
187	C	0.319443	0.18835	0.335447
188	C	0.356427	0.20662	0.335501
189	H	0.274347	0.137957	0.335267
190	H	0.369839	0.23344	0.335267
191	H	0.36983	0.137948	0.335265
192	C	0.300869	0.206928	0.668308
193	C	0.290892	0.216903	0.628062
194	N	0.273108	0.234683	0.63094
195	C	0.263932	0.243858	0.669992
196	C	0.273332	0.234461	0.377739
197	C	0.291807	0.21599	0.37632
198	H	0.298736	0.209061	0.405759
199	C	0.24541	0.262372	0.336913
200	C	0.208482	0.299295	0.336323
201	N	0.236077	0.271706	0.63143
202	C	0.218278	0.289501	0.629169
203	C	0.217703	0.290072	0.377414
204	C	0.236187	0.271593	0.378279
205	C	0.245646	0.262137	0.418954
206	C	0.264051	0.243738	0.418689
207	H	0.239222	0.268558	0.449074
208	H	0.270607	0.237184	0.448621
209	H	0.210888	0.296885	0.407024
210	C	0.298281	0.209513	0.582141
211	H	0.312544	0.195256	0.581725
212	H	0.313878	0.234118	0.564214
213	H	0.273676	0.193911	0.564217
214	C	0.210043	0.297736	0.584234
215	H	0.219864	0.287916	0.557623
216	H	0.222051	0.326016	0.580266
217	H	0.181763	0.285725	0.580266
218	C	0.300858	0.095499	0.668305
219	C	0.290884	0.075547	0.628059
220	N	0.273105	0.039983	0.630937
221	C	0.263929	0.021631	0.669989
222	C	0.273325	0.040428	0.377736
223	C	0.291795	0.077374	0.376317
224	H	0.298725	0.091232	0.405756
225	C	0.245412	0.484593	0.33691
226	C	0.208492	0.410744	0.336319
227	N	0.236081	0.465928	0.631427
228	C	0.218287	0.430335	0.629166
229	C	0.217715	0.429189	0.37741
230	C	0.236193	0.466151	0.378272
231	C	0.245649	0.485066	0.418951
232	C	0.264048	0.021871	0.418686
233	H	0.239228	0.472221	0.449071
234	H	0.270601	0.034981	0.448618
235	H	0.2109	0.415559	0.40702
236	C	0.298271	0.090326	0.582138
237	H	0.31253	0.118847	0.581722
238	H	0.273668	0.081318	0.56421
239	H	0.313875	0.081325	0.564214
240	C	0.210051	0.413863	0.584231
241	H	0.21987	0.433503	0.55762
242	H	0.181772	0.397591	0.580266
243	H	0.222061	0.397593	0.580263
244	C	0.412287	0.206919	0.668308
245	C	0.432239	0.216896	0.628062
246	N	0.467804	0.234679	0.630937
247	C	0.486156	0.243856	0.669989
248	C	0.467359	0.234456	0.377736
249	C	0.430413	0.215982	0.376317
250	H	0.416554	0.209052	0.405756
251	C	0.485917	0.243736	0.418686
252	H	0.472807	0.23718	0.448618
253	C	0.417459	0.209508	0.582141
254	H	0.388939	0.195246	0.581725
255	H	0.426465	0.193909	0.56421
256	H	0.426464	0.234113	0.564214
257	C	0.152925	0.354867	0.670291
258	C	0.189907	0.373578	0.670213
259	C	0.208171	0.354861	0.670291
260	C	0.189901	0.317878	0.670217
261	C	0.15292	0.299614	0.670301
262	H	0.234991	0.368269	0.670052
263	C	0.375135	0.188344	0.668781
264	C	0.356421	0.15136	0.668825
265	C	0.319436	0.132652	0.668781
266	C	0.301167	0.151365	0.668835
267	C	0.319443	0.18835	0.668781
268	C	0.356427	0.20662	0.668835
269	H	0.274347	0.137957	0.6686
270	H	0.369839	0.23344	0.6686
271	H	0.36983	0.137948	0.6686
272	C	0.300869	0.206928	0.001642
273	C	0.290892	0.216903	0.961396
274	N	0.273108	0.234683	0.964274
275	C	0.263932	0.243858	0.003325
276	C	0.273332	0.234461	0.711073
277	C	0.291807	0.21599	0.709654
278	H	0.298736	0.209061	0.73909
279	C	0.24541	0.262372	0.670247
280	C	0.208482	0.299295	0.669657
281	N	0.236077	0.271706	0.964764
282	C	0.218278	0.289501	0.962503
283	C	0.217703	0.290072	0.710748
284	C	0.236187	0.271593	0.711613
285	C	0.245646	0.262137	0.752288
286	C	0.264051	0.243738	0.752023
287	H	0.239222	0.268558	0.782408
288	H	0.270607	0.237184	0.781955
289	H	0.210888	0.296885	0.740354
290	C	0.298281	0.209513	0.915475
291	H	0.312544	0.195256	0.91506
292	H	0.313878	0.234118	0.897548
293	H	0.273676	0.193911	0.897548
294	C	0.210043	0.297736	0.917568
295	H	0.219864	0.287916	0.890957
296	H	0.222051	0.326016	0.9136
297	H	0.181763	0.285725	0.9136
298	C	0.300858	0.095499	0.001639
299	C	0.290884	0.075547	0.961393
300	N	0.273105	0.039983	0.964271
301	C	0.263929	0.021631	0.003321
302	C	0.273325	0.040428	0.71107
303	C	0.291795	0.077374	0.709651
304	H	0.298725	0.091232	0.73909
305	C	0.245412	0.484593	0.670244
306	C	0.208492	0.410744	0.669653
307	N	0.236081	0.465928	0.964761
308	C	0.218287	0.430335	0.9625
309	C	0.217715	0.429189	0.710744
310	C	0.236193	0.466151	0.711606
311	C	0.245649	0.485066	0.752285
312	C	0.264048	0.021871	0.752017
313	H	0.239228	0.472221	0.782405
314	H	0.270601	0.034981	0.781952
315	H	0.2109	0.415559	0.740351
316	C	0.298271	0.090326	0.915472
317	H	0.31253	0.118847	0.915056
318	H	0.273668	0.081318	0.897544
319	H	0.313875	0.081325	0.897548
320	C	0.210051	0.413863	0.917565
321	H	0.21987	0.433503	0.890954
322	H	0.181772	0.397591	0.913597
323	H	0.222061	0.397593	0.913597
324	C	0.412287	0.206919	0.001642
325	C	0.432239	0.216896	0.961393
326	N	0.467804	0.234679	0.964271
327	C	0.486156	0.243856	0.003322
328	C	0.467359	0.234456	0.71107
329	C	0.430413	0.215982	0.709651
330	H	0.416554	0.209052	0.73909
331	C	0.485917	0.243736	0.75202
332	H	0.472807	0.23718	0.781952
333	C	0.417459	0.209508	0.915475
334	H	0.388939	0.195246	0.91506
335	H	0.426465	0.193909	0.897544
336	H	0.426464	0.234113	0.897548
337	C	0.152925	0.854866	0.003622
338	C	0.189908	0.87358	0.003545
339	C	0.208171	0.854861	0.003622
340	C	0.1899	0.817877	0.003548
341	C	0.152918	0.799614	0.003635
342	H	0.23499	0.868268	0.003386
343	C	0.375135	0.688345	0.002115
344	C	0.356421	0.651359	0.002159
345	C	0.319436	0.632651	0.002115
346	C	0.301166	0.651365	0.002169
347	C	0.319443	0.68835	0.002115
348	C	0.356426	0.706619	0.002169
349	H	0.274346	0.637957	0.001934
350	H	0.369838	0.73344	0.001934
351	H	0.369828	0.637947	0.001934
352	C	0.300869	0.706928	0.334975
353	C	0.290891	0.716903	0.294729
354	N	0.273107	0.734683	0.297606
355	C	0.26393	0.743856	0.336658
356	C	0.27333	0.73446	0.044406
357	C	0.291806	0.715989	0.042986
358	H	0.298735	0.709061	0.072424
359	C	0.24541	0.762374	0.003581
360	C	0.208481	0.799294	0.002991
361	N	0.236076	0.771705	0.298096
362	C	0.218277	0.7895	0.295836
363	C	0.217702	0.790071	0.04408
364	C	0.236186	0.771592	0.044944
365	C	0.245646	0.762136	0.085621
366	C	0.264051	0.743739	0.085355
367	H	0.239221	0.768557	0.115742
368	H	0.270607	0.737184	0.115288
369	H	0.210888	0.796887	0.073689
370	C	0.29828	0.709513	0.248808
371	H	0.312543	0.695256	0.248392
372	H	0.313877	0.734117	0.230879
373	H	0.273675	0.693911	0.230882
374	C	0.210042	0.797735	0.250901
375	H	0.219863	0.787915	0.224291
376	H	0.22205	0.826015	0.246934
377	H	0.181763	0.785727	0.246933
378	C	0.300857	0.595497	0.334973
379	C	0.290882	0.575546	0.294726
380	N	0.273103	0.539984	0.297603
381	C	0.263928	0.521631	0.336655
382	C	0.273325	0.540428	0.044403
383	C	0.291795	0.577375	0.042982
384	H	0.298724	0.591232	0.072421
385	C	0.245412	0.984594	0.003577
386	C	0.208492	0.910743	0.002987
387	N	0.236081	0.965928	0.298092
388	C	0.218287	0.930334	0.295833
389	C	0.217714	0.929188	0.044076
390	C	0.236193	0.96615	0.04494
391	C	0.245648	0.985065	0.085617
392	C	0.264048	0.521871	0.085351
393	H	0.239228	0.972221	0.115738
394	H	0.270601	0.534981	0.115284
395	H	0.210899	0.915558	0.073685
396	C	0.298272	0.590327	0.248805
397	H	0.312528	0.618845	0.24839
398	H	0.273667	0.581318	0.230876
399	H	0.313874	0.581323	0.230879
400	C	0.210051	0.913862	0.250898
401	H	0.219869	0.933503	0.224287
402	H	0.181772	0.89759	0.246931
403	H	0.222061	0.897592	0.246931
404	C	0.412287	0.706918	0.334974
405	C	0.432239	0.716895	0.294727
406	N	0.467803	0.73468	0.297604
407	C	0.486155	0.743856	0.336655
408	C	0.467358	0.734455	0.044404
409	C	0.430412	0.715982	0.042983
410	H	0.416554	0.709053	0.072422
411	C	0.485916	0.743736	0.085352
412	H	0.472805	0.737179	0.115285
413	C	0.41746	0.709508	0.248806
414	H	0.388938	0.695245	0.248391
415	H	0.426465	0.693908	0.230877
416	H	0.426463	0.734112	0.230881
417	C	0.152925	0.854866	0.336956
418	C	0.189908	0.87358	0.336879
419	C	0.208171	0.854861	0.336956
420	C	0.1899	0.817877	0.336883
421	C	0.152918	0.799614	0.33697
422	H	0.23499	0.868268	0.336718
423	C	0.375135	0.688345	0.335447
424	C	0.356421	0.651359	0.335491
425	C	0.319436	0.632651	0.335447
426	C	0.301166	0.651365	0.335501
427	C	0.319443	0.68835	0.335447
428	C	0.356426	0.706619	0.335501
429	H	0.274346	0.637957	0.335267
430	H	0.369838	0.73344	0.335267
431	H	0.369828	0.637947	0.335265
432	C	0.300869	0.706928	0.668308
433	C	0.290891	0.716903	0.628062
434	N	0.273107	0.734683	0.63094
435	C	0.26393	0.743856	0.669992
436	C	0.27333	0.73446	0.377739
437	C	0.291806	0.715989	0.37632
438	H	0.298735	0.709061	0.405759
439	C	0.24541	0.762374	0.336913
440	C	0.208481	0.799294	0.336323
441	N	0.236076	0.771705	0.63143
442	C	0.218277	0.7895	0.629169
443	C	0.217702	0.790071	0.377414
444	C	0.236186	0.771592	0.378279
445	C	0.245646	0.762136	0.418954
446	C	0.264051	0.743739	0.418689
447	H	0.239221	0.768557	0.449074
448	H	0.270607	0.737184	0.448621
449	H	0.210888	0.796887	0.407024
450	C	0.29828	0.709513	0.582141
451	H	0.312543	0.695256	0.581725
452	H	0.313877	0.734117	0.564214
453	H	0.273675	0.693911	0.564217
454	C	0.210042	0.797735	0.584234
455	H	0.219863	0.787915	0.557623
456	H	0.22205	0.826015	0.580266
457	H	0.181763	0.785727	0.580266
458	C	0.300857	0.595497	0.668305
459	C	0.290882	0.575546	0.628059
460	N	0.273103	0.539984	0.630937
461	C	0.263928	0.521631	0.669989
462	C	0.273325	0.540428	0.377736
463	C	0.291795	0.577375	0.376317
464	H	0.298724	0.591232	0.405756
465	C	0.245412	0.984594	0.33691
466	C	0.208492	0.910743	0.336319
467	N	0.236081	0.965928	0.631427
468	C	0.218287	0.930334	0.629166
469	C	0.217714	0.929188	0.37741
470	C	0.236193	0.96615	0.378272
471	C	0.245648	0.985065	0.418951
472	C	0.264048	0.521871	0.418686
473	H	0.239228	0.972221	0.449071
474	H	0.270601	0.534981	0.448618
475	H	0.210899	0.915558	0.40702
476	C	0.298272	0.590327	0.582138
477	H	0.312528	0.618845	0.581722
478	H	0.273667	0.581318	0.56421
479	H	0.313874	0.581323	0.564214
480	C	0.210051	0.913862	0.584231
481	H	0.219869	0.933503	0.55762
482	H	0.181772	0.89759	0.580266
483	H	0.222061	0.897592	0.580263
484	C	0.412287	0.706918	0.668308
485	C	0.432239	0.716895	0.628062
486	N	0.467803	0.73468	0.630937
487	C	0.486155	0.743856	0.669989
488	C	0.467358	0.734455	0.377736
489	C	0.430412	0.715982	0.376317
490	H	0.416554	0.709053	0.405756
491	C	0.485916	0.743736	0.418686
492	H	0.472805	0.737179	0.448618
493	C	0.41746	0.709508	0.582141
494	H	0.388938	0.695245	0.581725
495	H	0.426465	0.693908	0.56421
496	H	0.426463	0.734112	0.564214
497	C	0.152925	0.854866	0.670291
498	C	0.189908	0.87358	0.670213
499	C	0.208171	0.854861	0.670291
500	C	0.1899	0.817877	0.670217
501	C	0.152918	0.799614	0.670301
502	H	0.23499	0.868268	0.670052
503	C	0.375135	0.688345	0.668781
504	C	0.356421	0.651359	0.668825
505	C	0.319436	0.632651	0.668781
506	C	0.301166	0.651365	0.668835
507	C	0.319443	0.68835	0.668781
508	C	0.356426	0.706619	0.668835
509	H	0.274346	0.637957	0.6686
510	H	0.369838	0.73344	0.6686
511	H	0.369828	0.637947	0.6686
512	C	0.300869	0.706928	0.001642
513	C	0.290891	0.716903	0.961396
514	N	0.273107	0.734683	0.964274
515	C	0.26393	0.743856	0.003325
516	C	0.27333	0.73446	0.711073
517	C	0.291806	0.715989	0.709654
518	H	0.298735	0.709061	0.73909
519	C	0.24541	0.762374	0.670247
520	C	0.208481	0.799294	0.669657
521	N	0.236076	0.771705	0.964764
522	C	0.218277	0.7895	0.962503
523	C	0.217702	0.790071	0.710748
524	C	0.236186	0.771592	0.711613
525	C	0.245646	0.762136	0.752288
526	C	0.264051	0.743739	0.752023
527	H	0.239221	0.768557	0.782408
528	H	0.270607	0.737184	0.781955
529	H	0.210888	0.796887	0.740354
530	C	0.29828	0.709513	0.915475
531	H	0.312543	0.695256	0.91506
532	H	0.313877	0.734117	0.897548
533	H	0.273675	0.693911	0.897548
534	C	0.210042	0.797735	0.917568
535	H	0.219863	0.787915	0.890957
536	H	0.22205	0.826015	0.9136
537	H	0.181763	0.785727	0.9136
538	C	0.300857	0.595497	0.001639
539	C	0.290882	0.575546	0.961393
540	N	0.273103	0.539984	0.964271
541	C	0.263928	0.521631	0.003321
542	C	0.273325	0.540428	0.71107
543	C	0.291795	0.577375	0.709651
544	H	0.298724	0.591232	0.73909
545	C	0.245412	0.984594	0.670244
546	C	0.208492	0.910743	0.669653
547	N	0.236081	0.965928	0.964761
548	C	0.218287	0.930334	0.9625
549	C	0.217714	0.929188	0.710744
550	C	0.236193	0.96615	0.711606
551	C	0.245648	0.985065	0.752285
552	C	0.264048	0.521871	0.752017
553	H	0.239228	0.972221	0.782405
554	H	0.270601	0.534981	0.781952
555	H	0.210899	0.915558	0.740351
556	C	0.298272	0.590327	0.915472
557	H	0.312528	0.618845	0.915056
558	H	0.273667	0.581318	0.897544
559	H	0.313874	0.581323	0.897548
560	C	0.210051	0.913862	0.917565
561	H	0.219869	0.933503	0.890954
562	H	0.181772	0.89759	0.913597
563	H	0.222061	0.897592	0.913597
564	C	0.412287	0.706918	0.001642
565	C	0.432239	0.716895	0.961393
566	N	0.467803	0.73468	0.964271
567	C	0.486155	0.743856	0.003322
568	C	0.467358	0.734455	0.71107
569	C	0.430412	0.715982	0.709651
570	H	0.416554	0.709053	0.73909
571	C	0.485916	0.743736	0.75202
572	H	0.472805	0.737179	0.781952
573	C	0.41746	0.709508	0.915475
574	H	0.388938	0.695245	0.91506
575	H	0.426465	0.693908	0.897544
576	H	0.426463	0.734112	0.897548
577	C	0.634206	0.317883	0.003546
578	C	0.652924	0.354867	0.003622
579	C	0.689905	0.373578	0.003545
580	C	0.70817	0.354861	0.003622
581	C	0.689901	0.317878	0.003548
582	C	0.652919	0.299614	0.003635
583	H	0.734992	0.368269	0.003386
584	H	0.639507	0.272794	0.003387
585	H	0.639517	0.368279	0.003385
586	C	0.875136	0.188344	0.002115
587	C	0.856422	0.15136	0.002159
588	C	0.819438	0.132652	0.002115
589	C	0.801167	0.151365	0.002169
590	C	0.819443	0.18835	0.002115
591	C	0.856426	0.20662	0.002169
592	H	0.774347	0.137957	0.001934
593	H	0.869838	0.23344	0.001934
594	H	0.869829	0.137948	0.001934
595	C	0.800869	0.206928	0.334975
596	C	0.790892	0.216903	0.294729
597	N	0.773108	0.234683	0.297606
598	C	0.763932	0.243858	0.336658
599	C	0.77333	0.234461	0.044406
600	C	0.791806	0.21599	0.042986
601	H	0.798736	0.209061	0.072424
602	C	0.745409	0.262372	0.003581
603	C	0.708482	0.299295	0.002991
604	N	0.736076	0.271706	0.298096
605	C	0.718278	0.289501	0.295836
606	C	0.717704	0.290072	0.04408
607	C	0.736188	0.271593	0.044944
608	C	0.745647	0.262137	0.085621
609	C	0.764051	0.243738	0.085355
610	H	0.739223	0.268558	0.115742
611	H	0.770608	0.237184	0.115288
612	H	0.710889	0.296885	0.073689
613	C	0.79828	0.209513	0.248808
614	H	0.812543	0.195256	0.248392
615	H	0.813877	0.234118	0.230879
616	H	0.773677	0.193911	0.230882
617	C	0.710043	0.297736	0.250901
618	H	0.719864	0.287916	0.224291
619	H	0.722051	0.326016	0.246934
620	H	0.681762	0.285725	0.246933
621	C	0.800859	0.095499	0.334973
622	C	0.790883	0.075547	0.294726
623	N	0.773103	0.039983	0.297603
624	C	0.76393	0.021631	0.336655
625	C	0.773326	0.040428	0.044403
626	C	0.791794	0.077374	0.042982
627	H	0.798723	0.091232	0.072421
628	C	0.745413	0.484593	0.003577
629	C	0.708493	0.410744	0.002987
630	N	0.736081	0.465928	0.298092
631	C	0.718286	0.430335	0.295833
632	C	0.717715	0.429189	0.044076
633	C	0.736194	0.466151	0.04494
634	C	0.74565	0.485066	0.085617
635	C	0.764047	0.021871	0.085351
636	H	0.739227	0.472221	0.115738
637	H	0.770602	0.034981	0.115284
638	H	0.7109	0.415559	0.073685
639	C	0.798273	0.090326	0.248805
640	H	0.812528	0.118847	0.24839
641	H	0.773669	0.081318	0.230876
642	H	0.813876	0.081325	0.230879
643	C	0.71005	0.413863	0.250898
644	H	0.71987	0.433503	0.224287
645	H	0.681771	0.397591	0.246931
646	H	0.72206	0.397593	0.246931
647	C	0.912288	0.206919	0.334974
648	C	0.93224	0.216896	0.294727
649	N	0.967803	0.234679	0.297604
650	C	0.986155	0.243856	0.336655
651	C	0.967358	0.234456	0.044404
652	C	0.930412	0.215982	0.042983
653	H	0.916555	0.209052	0.072422
654	C	0.523191	0.262375	0.003578
655	C	0.597041	0.299303	0.002987
656	N	0.541857	0.271708	0.298093
657	C	0.577454	0.289509	0.295834
658	C	0.578599	0.290082	0.044077
659	C	0.541634	0.271598	0.044941
660	C	0.522719	0.262139	0.085618
661	C	0.985916	0.243736	0.085352
662	H	0.535567	0.268563	0.115739
663	H	0.972806	0.23718	0.115285
664	H	0.592226	0.296896	0.073686
665	C	0.91746	0.209508	0.248806
666	H	0.88894	0.195246	0.248391
667	H	0.926466	0.193909	0.230877
668	H	0.926463	0.234113	0.230881
669	C	0.593922	0.297741	0.250899
670	H	0.574282	0.287921	0.224288
671	H	0.610193	0.285733	0.246933
672	H	0.610194	0.326021	0.246931
673	C	0.634206	0.317883	0.336879
674	C	0.652924	0.354867	0.336956
675	C	0.689905	0.373578	0.336879
676	C	0.70817	0.354861	0.336956
677	C	0.689901	0.317878	0.336883
678	C	0.652919	0.299614	0.33697
679	H	0.734992	0.368269	0.336718
680	H	0.639507	0.272794	0.336722
681	H	0.639517	0.368279	0.336718
682	C	0.875136	0.188344	0.335447
683	C	0.856422	0.15136	0.335491
684	C	0.819438	0.132652	0.335447
685	C	0.801167	0.151365	0.335501
686	C	0.819443	0.18835	0.335447
687	C	0.856426	0.20662	0.335501
688	H	0.774347	0.137957	0.335267
689	H	0.869838	0.23344	0.335267
690	H	0.869829	0.137948	0.335265
691	C	0.800869	0.206928	0.668308
692	C	0.790892	0.216903	0.628062
693	N	0.773108	0.234683	0.63094
694	C	0.763932	0.243858	0.669992
695	C	0.77333	0.234461	0.377739
696	C	0.791806	0.21599	0.37632
697	H	0.798736	0.209061	0.405759
698	C	0.745409	0.262372	0.336913
699	C	0.708482	0.299295	0.336323
700	N	0.736076	0.271706	0.63143
701	C	0.718278	0.289501	0.629169
702	C	0.717704	0.290072	0.377414
703	C	0.736188	0.271593	0.378279
704	C	0.745647	0.262137	0.418954
705	C	0.764051	0.243738	0.418689
706	H	0.739223	0.268558	0.449074
707	H	0.770608	0.237184	0.448621
708	H	0.710889	0.296885	0.407024
709	C	0.79828	0.209513	0.582141
710	H	0.812543	0.195256	0.581725
711	H	0.813877	0.234118	0.564214
712	H	0.773677	0.193911	0.564217
713	C	0.710043	0.297736	0.584234
714	H	0.719864	0.287916	0.557623
715	H	0.722051	0.326016	0.580266
716	H	0.681762	0.285725	0.580266
717	C	0.800859	0.095499	0.668305
718	C	0.790883	0.075547	0.628059
719	N	0.773103	0.039983	0.630937
720	C	0.76393	0.021631	0.669989
721	C	0.773326	0.040428	0.377736
722	C	0.791794	0.077374	0.376317
723	H	0.798723	0.091232	0.405756
724	C	0.745413	0.484593	0.33691
725	C	0.708493	0.410744	0.336319
726	N	0.736081	0.465928	0.631427
727	C	0.718286	0.430335	0.629166
728	C	0.717715	0.429189	0.37741
729	C	0.736194	0.466151	0.378272
730	C	0.74565	0.485066	0.418951
731	C	0.764047	0.021871	0.418686
732	H	0.739227	0.472221	0.449071
733	H	0.770602	0.034981	0.448618
734	H	0.7109	0.415559	0.40702
735	C	0.798273	0.090326	0.582138
736	H	0.812528	0.118847	0.581722
737	H	0.773669	0.081318	0.56421
738	H	0.813876	0.081325	0.564214
739	C	0.71005	0.413863	0.584231
740	H	0.71987	0.433503	0.55762
741	H	0.681771	0.397591	0.580266
742	H	0.72206	0.397593	0.580263
743	C	0.912288	0.206919	0.668308
744	C	0.93224	0.216896	0.628062
745	N	0.967803	0.234679	0.630937
746	C	0.986155	0.243856	0.669989
747	C	0.967358	0.234456	0.377736
748	C	0.930412	0.215982	0.376317
749	H	0.916555	0.209052	0.405756
750	C	0.523191	0.262375	0.336913
751	C	0.597041	0.299303	0.336319
752	N	0.541857	0.271708	0.631427
753	C	0.577454	0.289509	0.629169
754	C	0.578599	0.290082	0.37741
755	C	0.541634	0.271598	0.378276
756	C	0.522719	0.262139	0.418951
757	C	0.985916	0.243736	0.418686
758	H	0.535567	0.268563	0.449071
759	H	0.972806	0.23718	0.448618
760	H	0.592226	0.296896	0.40702
761	C	0.91746	0.209508	0.582141
762	H	0.88894	0.195246	0.581725
763	H	0.926466	0.193909	0.56421
764	H	0.926463	0.234113	0.564214
765	C	0.593922	0.297741	0.584231
766	H	0.574282	0.287921	0.557623
767	H	0.610193	0.285733	0.580266
768	H	0.610194	0.326021	0.580263
769	C	0.634206	0.317883	0.670213
770	C	0.652924	0.354867	0.670291
771	C	0.689905	0.373578	0.670213
772	C	0.70817	0.354861	0.670291
773	C	0.689901	0.317878	0.670217
774	C	0.652919	0.299614	0.670301
775	H	0.734992	0.368269	0.670052
776	H	0.639507	0.272794	0.670056
777	H	0.639517	0.368279	0.670052
778	C	0.875136	0.188344	0.668781
779	C	0.856422	0.15136	0.668825
780	C	0.819438	0.132652	0.668781
781	C	0.801167	0.151365	0.668835
782	C	0.819443	0.18835	0.668781
783	C	0.856426	0.20662	0.668835
784	H	0.774347	0.137957	0.6686
785	H	0.869838	0.23344	0.6686
786	H	0.869829	0.137948	0.6686
787	C	0.800869	0.206928	0.001642
788	C	0.790892	0.216903	0.961396
789	N	0.773108	0.234683	0.964274
790	C	0.763932	0.243858	0.003325
791	C	0.77333	0.234461	0.711073
792	C	0.791806	0.21599	0.709654
793	H	0.798736	0.209061	0.73909
794	C	0.745409	0.262372	0.670247
795	C	0.708482	0.299295	0.669657
796	N	0.736076	0.271706	0.964764
797	C	0.718278	0.289501	0.962503
798	C	0.717704	0.290072	0.710748
799	C	0.736188	0.271593	0.711613
800	C	0.745647	0.262137	0.752288
801	C	0.764051	0.243738	0.752023
802	H	0.739223	0.268558	0.782408
803	H	0.770608	0.237184	0.781955
804	H	0.710889	0.296885	0.740354
805	C	0.79828	0.209513	0.915475
806	H	0.812543	0.195256	0.91506
807	H	0.813877	0.234118	0.897548
808	H	0.773677	0.193911	0.897548
809	C	0.710043	0.297736	0.917568
810	H	0.719864	0.287916	0.890957
811	H	0.722051	0.326016	0.9136
812	H	0.681762	0.285725	0.9136
813	C	0.800859	0.095499	0.001639
814	C	0.790883	0.075547	0.961393
815	N	0.773103	0.039983	0.964271
816	C	0.76393	0.021631	0.003321
817	C	0.773326	0.040428	0.71107
818	C	0.791794	0.077374	0.709651
819	H	0.798723	0.091232	0.73909
820	C	0.745413	0.484593	0.670244
821	C	0.708493	0.410744	0.669653
822	N	0.736081	0.465928	0.964761
823	C	0.718286	0.430335	0.9625
824	C	0.717715	0.429189	0.710744
825	C	0.736194	0.466151	0.711606
826	C	0.74565	0.485066	0.752285
827	C	0.764047	0.021871	0.752017
828	H	0.739227	0.472221	0.782405
829	H	0.770602	0.034981	0.781952
830	H	0.7109	0.415559	0.740351
831	C	0.798273	0.090326	0.915472
832	H	0.812528	0.118847	0.915056
833	H	0.773669	0.081318	0.897544
834	H	0.813876	0.081325	0.897548
835	C	0.71005	0.413863	0.917565
836	H	0.71987	0.433503	0.890954
837	H	0.681771	0.397591	0.913597
838	H	0.72206	0.397593	0.913597
839	C	0.912288	0.206919	0.001642
840	C	0.93224	0.216896	0.961393
841	N	0.967803	0.234679	0.964271
842	C	0.986155	0.243856	0.003322
843	C	0.967358	0.234456	0.71107
844	C	0.930412	0.215982	0.709651
845	H	0.916555	0.209052	0.73909
846	C	0.523191	0.262375	0.670244
847	C	0.597041	0.299303	0.669653
848	N	0.541857	0.271708	0.964761
849	C	0.577454	0.289509	0.9625
850	C	0.578599	0.290082	0.710744
851	C	0.541634	0.271598	0.71161
852	C	0.522719	0.262139	0.752285
853	C	0.985916	0.243736	0.75202
854	H	0.535567	0.268563	0.782405
855	H	0.972806	0.23718	0.781952
856	H	0.592226	0.296896	0.740354
857	C	0.91746	0.209508	0.915475
858	H	0.88894	0.195246	0.91506
859	H	0.926466	0.193909	0.897544
860	H	0.926463	0.234113	0.897548
861	C	0.593922	0.297741	0.917565
862	H	0.574282	0.287921	0.890957
863	H	0.610193	0.285733	0.9136
864	H	0.610194	0.326021	0.913597
865	C	0.634206	0.817883	0.003546
866	C	0.652924	0.854866	0.003622
867	C	0.689906	0.87358	0.003545
868	C	0.70817	0.854861	0.003622
869	C	0.689901	0.817877	0.003548
870	C	0.652919	0.799614	0.003635
871	H	0.734989	0.868268	0.003386
872	H	0.639507	0.772793	0.003387
873	H	0.639517	0.868279	0.003385
874	C	0.875134	0.688345	0.002115
875	C	0.856421	0.651359	0.002159
876	C	0.819437	0.632651	0.002115
877	C	0.801166	0.651365	0.002169
878	C	0.819442	0.68835	0.002115
879	C	0.856426	0.706619	0.002169
880	H	0.774347	0.637957	0.001934
881	H	0.869838	0.73344	0.001934
882	H	0.869828	0.637947	0.001934
883	C	0.800869	0.706928	0.334975
884	C	0.790889	0.716903	0.294729
885	N	0.773108	0.734683	0.297606
886	C	0.763931	0.743856	0.336658
887	C	0.77333	0.73446	0.044406
888	C	0.791806	0.715989	0.042986
889	H	0.798736	0.709061	0.072424
890	C	0.74541	0.762374	0.003581
891	C	0.708481	0.799294	0.002991
892	N	0.736076	0.771705	0.298096
893	C	0.718277	0.7895	0.295836
894	C	0.717702	0.790071	0.04408
895	C	0.736185	0.771592	0.044944
896	C	0.745645	0.762136	0.085621
897	C	0.764051	0.743739	0.085355
898	H	0.73922	0.768557	0.115742
899	H	0.770606	0.737184	0.115288
900	H	0.710888	0.796887	0.073689
901	C	0.79828	0.709513	0.248808
902	H	0.812543	0.695256	0.248392
903	H	0.813877	0.734117	0.230879
904	H	0.773674	0.693911	0.230882
905	C	0.710042	0.797735	0.250901
906	H	0.719862	0.787915	0.224291
907	H	0.72205	0.826015	0.246934
908	H	0.681763	0.785727	0.246933
909	C	0.800856	0.595497	0.334973
910	C	0.790882	0.575546	0.294726
911	N	0.773104	0.539984	0.297603
912	C	0.763927	0.521631	0.336655
913	C	0.773324	0.540428	0.044403
914	C	0.791795	0.577375	0.042982
915	H	0.798723	0.591232	0.072421
916	C	0.745414	0.984594	0.003577
917	C	0.70849	0.910743	0.002987
918	N	0.73608	0.965928	0.298092
919	C	0.718286	0.930334	0.295833
920	C	0.717713	0.929188	0.044076
921	C	0.736191	0.96615	0.04494
922	C	0.745649	0.985065	0.085617
923	C	0.764048	0.521871	0.085351
924	H	0.739227	0.972221	0.115738
925	H	0.770602	0.534981	0.115284
926	H	0.7109	0.915558	0.073685
927	C	0.798273	0.590327	0.248805
928	H	0.812528	0.618845	0.24839
929	H	0.773666	0.581318	0.230876
930	H	0.813873	0.581323	0.230879
931	C	0.71005	0.913862	0.250898
932	H	0.71987	0.933503	0.224287
933	H	0.681771	0.89759	0.246931
934	H	0.72206	0.897592	0.246931
935	C	0.912286	0.706918	0.334974
936	C	0.932239	0.716895	0.294727
937	N	0.967803	0.73468	0.297604
938	C	0.986155	0.743856	0.336655
939	C	0.967358	0.734455	0.044404
940	C	0.930412	0.715982	0.042983
941	H	0.916555	0.709053	0.072422
942	C	0.523192	0.762377	0.003578
943	C	0.597043	0.799305	0.002987
944	N	0.541858	0.77171	0.298093
945	C	0.577452	0.789508	0.295834
946	C	0.578597	0.790081	0.044077
947	C	0.541634	0.771598	0.044941
948	C	0.522718	0.762139	0.085618
949	C	0.985916	0.743736	0.085352
950	H	0.535565	0.768562	0.115739
951	H	0.972805	0.737179	0.115285
952	H	0.592226	0.796895	0.073686
953	C	0.91746	0.709508	0.248806
954	H	0.888937	0.695245	0.248391
955	H	0.926465	0.693908	0.230877
956	H	0.926463	0.734112	0.230881
957	C	0.593923	0.797743	0.250899
958	H	0.574281	0.78792	0.224288
959	H	0.610193	0.785732	0.246933
960	H	0.610193	0.82602	0.246931
961	C	0.634206	0.817883	0.336879
962	C	0.652924	0.854866	0.336956
963	C	0.689906	0.87358	0.336879
964	C	0.70817	0.854861	0.336956
965	C	0.689901	0.817877	0.336883
966	C	0.652919	0.799614	0.33697
967	H	0.734989	0.868268	0.336718
968	H	0.639507	0.772793	0.336722
969	H	0.639517	0.868279	0.336718
970	C	0.875134	0.688345	0.335447
971	C	0.856421	0.651359	0.335491
972	C	0.819437	0.632651	0.335447
973	C	0.801166	0.651365	0.335501
974	C	0.819442	0.68835	0.335447
975	C	0.856426	0.706619	0.335501
976	H	0.774347	0.637957	0.335267
977	H	0.869838	0.73344	0.335267
978	H	0.869828	0.637947	0.335265
979	C	0.800869	0.706928	0.668308
980	C	0.790889	0.716903	0.628062
981	N	0.773108	0.734683	0.63094
982	C	0.763931	0.743856	0.669992
983	C	0.77333	0.73446	0.377739
984	C	0.791806	0.715989	0.37632
985	H	0.798736	0.709061	0.405759
986	C	0.74541	0.762374	0.336913
987	C	0.708481	0.799294	0.336323
988	N	0.736076	0.771705	0.63143
989	C	0.718277	0.7895	0.629169
990	C	0.717702	0.790071	0.377414
991	C	0.736185	0.771592	0.378279
992	C	0.745645	0.762136	0.418954
993	C	0.764051	0.743739	0.418689
994	H	0.73922	0.768557	0.449074
995	H	0.770606	0.737184	0.448621
996	H	0.710888	0.796887	0.407024
997	C	0.79828	0.709513	0.582141
998	H	0.812543	0.695256	0.581725
999	H	0.813877	0.734117	0.564214
1000	H	0.773674	0.693911	0.564217
1001	C	0.710042	0.797735	0.584234
1002	H	0.719862	0.787915	0.557623
1003	H	0.72205	0.826015	0.580266
1004	H	0.681763	0.785727	0.580266
1005	C	0.800856	0.595497	0.668305
1006	C	0.790882	0.575546	0.628059
1007	N	0.773104	0.539984	0.630937
1008	C	0.763927	0.521631	0.669989
1009	C	0.773324	0.540428	0.377736
1010	C	0.791795	0.577375	0.376317
1011	H	0.798723	0.591232	0.405756
1012	C	0.745414	0.984594	0.33691
1013	C	0.70849	0.910743	0.336319
1014	N	0.73608	0.965928	0.631427
1015	C	0.718286	0.930334	0.629166
1016	C	0.717713	0.929188	0.37741
1017	C	0.736191	0.96615	0.378272
1018	C	0.745649	0.985065	0.418951
1019	C	0.764048	0.521871	0.418686
1020	H	0.739227	0.972221	0.449071
1021	H	0.770602	0.534981	0.448618
1022	H	0.7109	0.915558	0.40702
1023	C	0.798273	0.590327	0.582138
1024	H	0.812528	0.618845	0.581722
1025	H	0.773666	0.581318	0.56421
1026	H	0.813873	0.581323	0.564214
1027	C	0.71005	0.913862	0.584231
1028	H	0.71987	0.933503	0.55762
1029	H	0.681771	0.89759	0.580266
1030	H	0.72206	0.897592	0.580263
1031	C	0.912286	0.706918	0.668308
1032	C	0.932239	0.716895	0.628062
1033	N	0.967803	0.73468	0.630937
1034	C	0.986155	0.743856	0.669989
1035	C	0.967358	0.734455	0.377736
1036	C	0.930412	0.715982	0.376317
1037	H	0.916555	0.709053	0.405756
1038	C	0.523192	0.762377	0.336913
1039	C	0.597043	0.799305	0.336319
1040	N	0.541858	0.77171	0.631427
1041	C	0.577452	0.789508	0.629169
1042	C	0.578597	0.790081	0.37741
1043	C	0.541634	0.771598	0.378276
1044	C	0.522718	0.762139	0.418951
1045	C	0.985916	0.743736	0.418686
1046	H	0.535565	0.768562	0.449071
1047	H	0.972805	0.737179	0.448618
1048	H	0.592226	0.796895	0.40702
1049	C	0.91746	0.709508	0.582141
1050	H	0.888937	0.695245	0.581725
1051	H	0.926465	0.693908	0.56421
1052	H	0.926463	0.734112	0.564214
1053	C	0.593923	0.797743	0.584231
1054	H	0.574281	0.78792	0.557623
1055	H	0.610193	0.785732	0.580266
1056	H	0.610193	0.82602	0.580263
1057	C	0.634206	0.817883	0.670213
1058	C	0.652924	0.854866	0.670291
1059	C	0.689906	0.87358	0.670213
1060	C	0.70817	0.854861	0.670291
1061	C	0.689901	0.817877	0.670217
1062	C	0.652919	0.799614	0.670301
1063	H	0.734989	0.868268	0.670052
1064	H	0.639507	0.772793	0.670056
1065	H	0.639517	0.868279	0.670052
1066	C	0.875134	0.688345	0.668781
1067	C	0.856421	0.651359	0.668825
1068	C	0.819437	0.632651	0.668781
1069	C	0.801166	0.651365	0.668835
1070	C	0.819442	0.68835	0.668781
1071	C	0.856426	0.706619	0.668835
1072	H	0.774347	0.637957	0.6686
1073	H	0.869838	0.73344	0.6686
1074	H	0.869828	0.637947	0.6686
1075	C	0.800869	0.706928	0.001642
1076	C	0.790889	0.716903	0.961396
1077	N	0.773108	0.734683	0.964274
1078	C	0.763931	0.743856	0.003325
1079	C	0.77333	0.73446	0.711073
1080	C	0.791806	0.715989	0.709654
1081	H	0.798736	0.709061	0.73909
1082	C	0.74541	0.762374	0.670247
1083	C	0.708481	0.799294	0.669657
1084	N	0.736076	0.771705	0.964764
1085	C	0.718277	0.7895	0.962503
1086	C	0.717702	0.790071	0.710748
1087	C	0.736185	0.771592	0.711613
1088	C	0.745645	0.762136	0.752288
1089	C	0.764051	0.743739	0.752023
1090	H	0.73922	0.768557	0.782408
1091	H	0.770606	0.737184	0.781955
1092	H	0.710888	0.796887	0.740354
1093	C	0.79828	0.709513	0.915475
1094	H	0.812543	0.695256	0.91506
1095	H	0.813877	0.734117	0.897548
1096	H	0.773674	0.693911	0.897548
1097	C	0.710042	0.797735	0.917568
1098	H	0.719862	0.787915	0.890957
1099	H	0.72205	0.826015	0.9136
1100	H	0.681763	0.785727	0.9136
1101	C	0.800856	0.595497	0.001639
1102	C	0.790882	0.575546	0.961393
1103	N	0.773104	0.539984	0.964271
1104	C	0.763927	0.521631	0.003321
1105	C	0.773324	0.540428	0.71107
1106	C	0.791795	0.577375	0.709651
1107	H	0.798723	0.591232	0.73909
1108	C	0.745414	0.984594	0.670244
1109	C	0.70849	0.910743	0.669653
1110	N	0.73608	0.965928	0.964761
1111	C	0.718286	0.930334	0.9625
1112	C	0.717713	0.929188	0.710744
1113	C	0.736191	0.96615	0.711606
1114	C	0.745649	0.985065	0.752285
1115	C	0.764048	0.521871	0.752017
1116	H	0.739227	0.972221	0.782405
1117	H	0.770602	0.534981	0.781952
1118	H	0.7109	0.915558	0.740351
1119	C	0.798273	0.590327	0.915472
1120	H	0.812528	0.618845	0.915056
1121	H	0.773666	0.581318	0.897544
1122	H	0.813873	0.581323	0.897548
1123	C	0.71005	0.913862	0.917565
1124	H	0.71987	0.933503	0.890954
1125	H	0.681771	0.89759	0.913597
1126	H	0.72206	0.897592	0.913597
1127	C	0.912286	0.706918	0.001642
1128	C	0.932239	0.716895	0.961393
1129	N	0.967803	0.73468	0.964271
1130	C	0.986155	0.743856	0.003322
1131	C	0.967358	0.734455	0.71107
1132	C	0.930412	0.715982	0.709651
1133	H	0.916555	0.709053	0.73909
1134	C	0.523192	0.762377	0.670244
1135	C	0.597043	0.799305	0.669653
1136	N	0.541858	0.77171	0.964761
1137	C	0.577452	0.789508	0.9625
1138	C	0.578597	0.790081	0.710744
1139	C	0.541634	0.771598	0.71161
1140	C	0.522718	0.762139	0.752285
1141	C	0.985916	0.743736	0.75202
1142	H	0.535565	0.768562	0.782405
1143	H	0.972805	0.737179	0.781952
1144	H	0.592226	0.796895	0.740354
1145	C	0.91746	0.709508	0.915475
1146	H	0.888937	0.695245	0.91506
1147	H	0.926465	0.693908	0.897544
1148	H	0.926463	0.734112	0.897548
1149	C	0.593923	0.797743	0.917565
1150	H	0.574281	0.78792	0.890957
1151	H	0.610193	0.785732	0.9136
1152	H	0.610193	0.82602	0.913597
