data_C576H360N144_2018-02-15_10:37:04
#******************************************
#
# CIF file created by Zeo++
# Zeo++ is an open source package to
# analyze microporous materials
#
#*******************************************

_cell_length_a		43.6887   
_cell_length_b		43.6887   
_cell_length_c		29.7762   
_cell_angle_alpha		90   
_cell_angle_beta		90   
_cell_angle_gamma		120   

_symmetry_space_group_name_H-M		'P1'
_symmetry_Int_Tables_number		1
_symmetry_cell_setting		Monoclinic

loop_
_symmetry_equiv_pos_as_xyz
'+x,+y,+z'

loop_
_atom_site_label
_atom_site_type_symbol
_atom_site_fract_x
_atom_site_fract_y
_atom_site_fract_z
1	C	0.024349	0.263114	0.0042
2	N	0.043235	0.272559	0.298682
3	C	0.042969	0.272424	0.045629
4	C	0.023837	0.262858	0.086337
5	H	0.036805	0.269342	0.11652
6	H	0.076091	0.288985	0.224809
7	C	0.024349	0.263114	0.337534
8	N	0.043235	0.272559	0.632014
9	C	0.042969	0.272424	0.378963
10	C	0.023837	0.262858	0.41967
11	H	0.036805	0.269342	0.449856
12	H	0.076091	0.288985	0.558143
13	C	0.024349	0.263114	0.670868
14	N	0.043235	0.272559	0.965348
15	C	0.042969	0.272424	0.712297
16	C	0.023837	0.262858	0.753004
17	H	0.036805	0.269342	0.783189
18	H	0.076091	0.288985	0.891476
19	C	0.024349	0.763113	0.0042
20	N	0.043235	0.772557	0.298682
21	C	0.042969	0.772425	0.045629
22	C	0.023836	0.762857	0.086337
23	H	0.036805	0.769343	0.11652
24	H	0.076092	0.788986	0.224809
25	C	0.024349	0.763113	0.337534
26	N	0.043235	0.772557	0.632014
27	C	0.042969	0.772425	0.378963
28	C	0.023836	0.762857	0.41967
29	H	0.036805	0.769343	0.449856
30	H	0.076092	0.788986	0.558143
31	C	0.024349	0.763113	0.670868
32	N	0.043235	0.772557	0.965348
33	C	0.042969	0.772425	0.712297
34	C	0.023836	0.762857	0.753004
35	H	0.036805	0.769343	0.783189
36	H	0.076092	0.788986	0.891476
37	C	0.098939	0.300411	0.00367
38	C	0.079196	0.290539	0.296453
39	C	0.080313	0.291097	0.044796
40	H	0.094069	0.297974	0.074469
41	C	0.095891	0.298886	0.2515
42	H	0.112338	0.286765	0.24758
43	H	0.112337	0.327454	0.24758
44	C	0.098939	0.300411	0.337004
45	C	0.079196	0.290539	0.629788
46	C	0.080313	0.291097	0.378131
47	H	0.094069	0.297974	0.407802
48	C	0.095891	0.298886	0.584832
49	H	0.112338	0.286765	0.580913
50	H	0.112337	0.327454	0.580913
51	C	0.098939	0.300411	0.670337
52	C	0.079196	0.290539	0.963121
53	C	0.080313	0.291097	0.711464
54	H	0.094069	0.297974	0.741135
55	C	0.095891	0.298886	0.918166
56	H	0.112338	0.286765	0.914246
57	H	0.112337	0.327454	0.914246
58	C	0.098938	0.800409	0.00367
59	C	0.079195	0.790537	0.296453
60	C	0.080313	0.791098	0.044796
61	H	0.094068	0.797975	0.074469
62	C	0.09589	0.798886	0.2515
63	H	0.112338	0.786763	0.24758
64	H	0.112337	0.827455	0.24758
65	C	0.098938	0.800409	0.337004
66	C	0.079195	0.790537	0.629788
67	C	0.080313	0.791098	0.378131
68	H	0.094068	0.797975	0.407802
69	C	0.09589	0.798886	0.584832
70	H	0.112338	0.786763	0.580913
71	H	0.112337	0.827455	0.580913
72	C	0.098938	0.800409	0.670337
73	C	0.079195	0.790537	0.963121
74	C	0.080313	0.791098	0.711464
75	H	0.094068	0.797975	0.741135
76	C	0.09589	0.798886	0.918166
77	H	0.112338	0.786763	0.914246
78	H	0.112337	0.827455	0.914246
79	N	0.1544	0.354992	0.004164
80	C	0.136246	0.319062	0.004223
81	N	0.154401	0.301288	0.004164
82	N	0.1544	0.354992	0.337498
83	C	0.136246	0.319062	0.337558
84	N	0.154401	0.301288	0.337498
85	N	0.1544	0.354992	0.670831
86	C	0.136246	0.319062	0.670891
87	N	0.154401	0.301288	0.670831
88	N	0.154399	0.854992	0.004164
89	C	0.136245	0.819063	0.004223
90	N	0.1544	0.801286	0.004164
91	N	0.154399	0.854992	0.337498
92	C	0.136245	0.819063	0.337558
93	N	0.1544	0.801286	0.337498
94	N	0.154399	0.854992	0.670831
95	C	0.136245	0.819063	0.670891
96	N	0.1544	0.801286	0.670831
97	C	0.19033	0.373147	0.004222
98	C	0.19033	0.319062	0.004223
99	N	0.208105	0.354992	0.004164
100	C	0.32094	0.134368	0.002656
101	N	0.356872	0.15252	0.002605
102	C	0.375026	0.188452	0.002656
103	N	0.356872	0.206231	0.002605
104	C	0.320941	0.188452	0.002656
105	N	0.303162	0.152521	0.002605
106	C	0.302293	0.207101	0.335547
107	C	0.292223	0.217171	0.295258
108	N	0.274259	0.235134	0.29815
109	C	0.264989	0.244405	0.337256
110	C	0.274493	0.234901	0.045047
111	C	0.293156	0.216238	0.043614
112	H	0.30016	0.209234	0.073101
113	C	0.246279	0.263114	0.004199
114	C	0.208983	0.300408	0.00367
115	N	0.236835	0.272556	0.298681
116	C	0.218855	0.290536	0.296453
117	C	0.218297	0.291097	0.044795
118	C	0.236968	0.272424	0.045628
119	C	0.246535	0.262857	0.086336
120	C	0.265122	0.244272	0.086048
121	H	0.240051	0.269342	0.116519
122	H	0.27175	0.237644	0.116029
123	H	0.211418	0.297974	0.074468
124	C	0.299697	0.209697	0.249289
125	H	0.314103	0.195292	0.248907
126	H	0.315458	0.234544	0.23133
127	H	0.27485	0.193936	0.23133
128	C	0.210507	0.298886	0.251499
129	H	0.220406	0.288985	0.224809
130	H	0.22263	0.327454	0.24758
131	H	0.181938	0.286762	0.24758
132	C	0.302292	0.09707	0.335547
133	C	0.292222	0.076931	0.295258
134	N	0.274259	0.041004	0.29815
135	C	0.264988	0.022463	0.337256
136	C	0.274492	0.041471	0.045048
137	C	0.293155	0.078797	0.043614
138	H	0.300159	0.092805	0.073101
139	C	0.246279	0.485044	0.004199
140	C	0.208985	0.410455	0.00367
141	N	0.236835	0.466157	0.298681
142	C	0.218855	0.430196	0.296453
143	C	0.218296	0.429078	0.044795
144	C	0.236969	0.466424	0.045629
145	C	0.246535	0.485557	0.086336
146	C	0.265121	0.022729	0.086049
147	H	0.24005	0.472587	0.11652
148	H	0.271749	0.035985	0.11603
149	H	0.211419	0.415324	0.074468
150	C	0.299696	0.091878	0.249289
151	H	0.314101	0.120689	0.248907
152	H	0.27485	0.082792	0.23133
153	H	0.315458	0.082792	0.231331
154	C	0.210507	0.4135	0.251499
155	H	0.220408	0.433302	0.224809
156	H	0.181939	0.397055	0.24758
157	H	0.22263	0.397055	0.247579
158	C	0.412323	0.2071	0.335547
159	C	0.432463	0.21717	0.295258
160	N	0.46839	0.235134	0.29815
161	C	0.48693	0.244404	0.337256
162	C	0.467923	0.2349	0.045048
163	C	0.430595	0.216236	0.043614
164	H	0.416587	0.209233	0.073101
165	C	0.486664	0.244271	0.086049
166	H	0.473407	0.237643	0.11603
167	C	0.417515	0.209696	0.249289
168	H	0.388704	0.195291	0.248907
169	H	0.426602	0.193936	0.231331
170	H	0.426601	0.234543	0.231331
171	C	0.19033	0.373147	0.337555
172	C	0.19033	0.319062	0.337555
173	N	0.208105	0.354992	0.337498
174	C	0.32094	0.134368	0.33599
175	N	0.356872	0.15252	0.335939
176	C	0.375026	0.188452	0.33599
177	N	0.356872	0.206231	0.335939
178	C	0.320941	0.188452	0.335986
179	N	0.303162	0.152521	0.335939
180	C	0.302293	0.207101	0.668879
181	C	0.292223	0.217171	0.628592
182	N	0.274259	0.235134	0.631484
183	C	0.264989	0.244405	0.670589
184	C	0.274493	0.234901	0.378382
185	C	0.293156	0.216238	0.376948
186	H	0.30016	0.209234	0.406435
187	C	0.246279	0.263114	0.337531
188	C	0.208983	0.300408	0.337004
189	N	0.236835	0.272556	0.632014
190	C	0.218855	0.290536	0.629788
191	C	0.218297	0.291097	0.378127
192	C	0.236968	0.272424	0.378963
193	C	0.246535	0.262857	0.41967
194	C	0.265122	0.244272	0.419382
195	H	0.240051	0.269342	0.449852
196	H	0.27175	0.237644	0.449362
197	H	0.211418	0.297974	0.407802
198	C	0.299697	0.209697	0.582623
199	H	0.314103	0.195292	0.58224
200	H	0.315458	0.234544	0.564662
201	H	0.27485	0.193936	0.564665
202	C	0.210507	0.298886	0.584832
203	H	0.220406	0.288985	0.558143
204	H	0.22263	0.327454	0.580913
205	H	0.181938	0.286762	0.580913
206	C	0.302292	0.09707	0.668879
207	C	0.292222	0.076931	0.628592
208	N	0.274259	0.041004	0.631484
209	C	0.264988	0.022463	0.670589
210	C	0.274492	0.041471	0.378382
211	C	0.293155	0.078797	0.376948
212	H	0.300159	0.092805	0.406435
213	C	0.246279	0.485044	0.337534
214	C	0.208985	0.410455	0.337004
215	N	0.236835	0.466157	0.632014
216	C	0.218855	0.430196	0.629788
217	C	0.218296	0.429078	0.378131
218	C	0.236969	0.466424	0.378963
219	C	0.246535	0.485557	0.41967
220	C	0.265121	0.022729	0.419382
221	H	0.24005	0.472587	0.449852
222	H	0.271749	0.035985	0.449362
223	H	0.211419	0.415324	0.407802
224	C	0.299696	0.091878	0.582623
225	H	0.314101	0.120689	0.58224
226	H	0.27485	0.082792	0.564662
227	H	0.315458	0.082792	0.564665
228	C	0.210507	0.4135	0.584832
229	H	0.220408	0.433302	0.558143
230	H	0.181939	0.397055	0.580913
231	H	0.22263	0.397055	0.580913
232	C	0.412323	0.2071	0.668879
233	C	0.432463	0.21717	0.628592
234	N	0.46839	0.235134	0.631484
235	C	0.48693	0.244404	0.670589
236	C	0.467923	0.2349	0.378382
237	C	0.430595	0.216236	0.376948
238	H	0.416587	0.209233	0.406435
239	C	0.486664	0.244271	0.419382
240	H	0.473407	0.237643	0.449365
241	C	0.417515	0.209696	0.582623
242	H	0.388704	0.195291	0.58224
243	H	0.426602	0.193936	0.564665
244	H	0.426601	0.234543	0.564665
245	C	0.19033	0.373147	0.670891
246	C	0.19033	0.319062	0.670891
247	N	0.208105	0.354992	0.670831
248	C	0.32094	0.134368	0.669323
249	N	0.356872	0.15252	0.669272
250	C	0.375026	0.188452	0.669323
251	N	0.356872	0.206231	0.669272
252	C	0.320941	0.188452	0.669323
253	N	0.303162	0.152521	0.669272
254	C	0.302293	0.207101	0.002213
255	C	0.292223	0.217171	0.961925
256	N	0.274259	0.235134	0.964817
257	C	0.264989	0.244405	0.003922
258	C	0.274493	0.234901	0.711716
259	C	0.293156	0.216238	0.710282
260	H	0.30016	0.209234	0.739768
261	C	0.246279	0.263114	0.670868
262	C	0.208983	0.300408	0.670337
263	N	0.236835	0.272556	0.965348
264	C	0.218855	0.290536	0.963121
265	C	0.218297	0.291097	0.711464
266	C	0.236968	0.272424	0.712297
267	C	0.246535	0.262857	0.753004
268	C	0.265122	0.244272	0.752715
269	H	0.240051	0.269342	0.783185
270	H	0.27175	0.237644	0.782695
271	H	0.211418	0.297974	0.741135
272	C	0.299697	0.209697	0.915956
273	H	0.314103	0.195292	0.915573
274	H	0.315458	0.234544	0.897998
275	H	0.27485	0.193936	0.897998
276	C	0.210507	0.298886	0.918166
277	H	0.220406	0.288985	0.891476
278	H	0.22263	0.327454	0.914246
279	H	0.181938	0.286762	0.914246
280	C	0.302292	0.09707	0.002213
281	C	0.292222	0.076931	0.961925
282	N	0.274259	0.041004	0.964817
283	C	0.264988	0.022463	0.003923
284	C	0.274492	0.041471	0.711716
285	C	0.293155	0.078797	0.710282
286	H	0.300159	0.092805	0.739768
287	C	0.246279	0.485044	0.670868
288	C	0.208985	0.410455	0.670337
289	N	0.236835	0.466157	0.965348
290	C	0.218855	0.430196	0.963121
291	C	0.218296	0.429078	0.711464
292	C	0.236969	0.466424	0.712297
293	C	0.246535	0.485557	0.753004
294	C	0.265121	0.022729	0.752715
295	H	0.24005	0.472587	0.783185
296	H	0.271749	0.035985	0.782698
297	H	0.211419	0.415324	0.741135
298	C	0.299696	0.091878	0.915956
299	H	0.314101	0.120689	0.915573
300	H	0.27485	0.082792	0.897998
301	H	0.315458	0.082792	0.897998
302	C	0.210507	0.4135	0.918166
303	H	0.220408	0.433302	0.891476
304	H	0.181939	0.397055	0.914246
305	H	0.22263	0.397055	0.914246
306	C	0.412323	0.2071	0.002213
307	C	0.432463	0.21717	0.961925
308	N	0.46839	0.235134	0.964817
309	C	0.48693	0.244404	0.003923
310	C	0.467923	0.2349	0.711716
311	C	0.430595	0.216236	0.710282
312	H	0.416587	0.209233	0.739768
313	C	0.486664	0.244271	0.752715
314	H	0.473407	0.237643	0.782698
315	C	0.417515	0.209696	0.915956
316	H	0.388704	0.195291	0.915573
317	H	0.426602	0.193936	0.897998
318	H	0.426601	0.234543	0.897998
319	C	0.190331	0.873147	0.004222
320	C	0.190328	0.819061	0.004223
321	N	0.208105	0.854992	0.004164
322	C	0.32094	0.634367	0.002656
323	N	0.356871	0.652519	0.002605
324	C	0.375024	0.688451	0.002656
325	N	0.356872	0.70623	0.002605
326	C	0.320941	0.688453	0.002656
327	N	0.303162	0.652521	0.002605
328	C	0.302292	0.7071	0.335547
329	C	0.292222	0.71717	0.295258
330	N	0.274259	0.735134	0.29815
331	C	0.264987	0.744403	0.337256
332	C	0.274493	0.734902	0.045047
333	C	0.293155	0.716237	0.043614
334	H	0.300159	0.709233	0.073101
335	C	0.246278	0.763113	0.004199
336	C	0.208983	0.800409	0.00367
337	N	0.236835	0.772557	0.298681
338	C	0.218855	0.790537	0.296453
339	C	0.218295	0.791095	0.044795
340	C	0.236968	0.772425	0.045628
341	C	0.246534	0.762857	0.086336
342	C	0.265121	0.744271	0.086048
343	H	0.240049	0.76934	0.116519
344	H	0.271749	0.737642	0.116029
345	H	0.211417	0.797972	0.074468
346	C	0.299697	0.709698	0.249289
347	H	0.314102	0.695293	0.248907
348	H	0.315457	0.734545	0.23133
349	H	0.274849	0.693935	0.23133
350	C	0.210506	0.798884	0.251499
351	H	0.220406	0.788986	0.224809
352	H	0.222628	0.827452	0.24758
353	H	0.181938	0.786763	0.24758
354	C	0.302292	0.597071	0.335547
355	C	0.292222	0.576931	0.295258
356	N	0.274259	0.541005	0.29815
357	C	0.264989	0.522464	0.337256
358	C	0.274492	0.54147	0.045048
359	C	0.293155	0.578797	0.043614
360	H	0.300159	0.592805	0.073101
361	C	0.246278	0.985042	0.004199
362	C	0.208984	0.910454	0.00367
363	N	0.236836	0.966158	0.298681
364	C	0.218855	0.930197	0.296453
365	C	0.218296	0.929079	0.044795
366	C	0.236968	0.966422	0.045629
367	C	0.246534	0.985555	0.086336
368	C	0.265121	0.522728	0.086049
369	H	0.240051	0.972588	0.11652
370	H	0.271749	0.535986	0.11603
371	H	0.211418	0.915322	0.074468
372	C	0.299696	0.591877	0.249289
373	H	0.314101	0.620689	0.248907
374	H	0.274849	0.582791	0.23133
375	H	0.315457	0.582791	0.231331
376	C	0.210507	0.913501	0.251499
377	H	0.220407	0.9333	0.224809
378	H	0.181939	0.897056	0.24758
379	H	0.22263	0.897056	0.247579
380	C	0.412322	0.7071	0.335547
381	C	0.432461	0.71717	0.295258
382	N	0.468389	0.735134	0.29815
383	C	0.486929	0.744403	0.337256
384	C	0.467921	0.734899	0.045048
385	C	0.430595	0.716237	0.043614
386	H	0.416587	0.709233	0.073101
387	C	0.486664	0.744271	0.086049
388	H	0.473407	0.737642	0.11603
389	C	0.417514	0.709695	0.249289
390	H	0.388704	0.695291	0.248907
391	H	0.426601	0.693935	0.231331
392	H	0.4266	0.734542	0.231331
393	C	0.190331	0.873147	0.337555
394	C	0.190328	0.819061	0.337555
395	N	0.208105	0.854992	0.337498
396	C	0.32094	0.634367	0.33599
397	N	0.356871	0.652519	0.335939
398	C	0.375024	0.688451	0.33599
399	N	0.356872	0.70623	0.335939
400	C	0.320941	0.688453	0.335986
401	N	0.303162	0.652521	0.335939
402	C	0.302292	0.7071	0.668879
403	C	0.292222	0.71717	0.628592
404	N	0.274259	0.735134	0.631484
405	C	0.264987	0.744403	0.670589
406	C	0.274493	0.734902	0.378382
407	C	0.293155	0.716237	0.376948
408	H	0.300159	0.709233	0.406435
409	C	0.246278	0.763113	0.337531
410	C	0.208983	0.800409	0.337004
411	N	0.236835	0.772557	0.632014
412	C	0.218855	0.790537	0.629788
413	C	0.218295	0.791095	0.378127
414	C	0.236968	0.772425	0.378963
415	C	0.246534	0.762857	0.41967
416	C	0.265121	0.744271	0.419382
417	H	0.240049	0.76934	0.449852
418	H	0.271749	0.737642	0.449362
419	H	0.211417	0.797972	0.407802
420	C	0.299697	0.709698	0.582623
421	H	0.314102	0.695293	0.58224
422	H	0.315457	0.734545	0.564662
423	H	0.274849	0.693935	0.564665
424	C	0.210506	0.798884	0.584832
425	H	0.220406	0.788986	0.558143
426	H	0.222628	0.827452	0.580913
427	H	0.181938	0.786763	0.580913
428	C	0.302292	0.597071	0.668879
429	C	0.292222	0.576931	0.628592
430	N	0.274259	0.541005	0.631484
431	C	0.264989	0.522464	0.670589
432	C	0.274492	0.54147	0.378382
433	C	0.293155	0.578797	0.376948
434	H	0.300159	0.592805	0.406435
435	C	0.246278	0.985042	0.337534
436	C	0.208984	0.910454	0.337004
437	N	0.236836	0.966158	0.632014
438	C	0.218855	0.930197	0.629788
439	C	0.218296	0.929079	0.378131
440	C	0.236968	0.966422	0.378963
441	C	0.246534	0.985555	0.41967
442	C	0.265121	0.522728	0.419382
443	H	0.240051	0.972588	0.449852
444	H	0.271749	0.535986	0.449362
445	H	0.211418	0.915322	0.407802
446	C	0.299696	0.591877	0.582623
447	H	0.314101	0.620689	0.58224
448	H	0.274849	0.582791	0.564662
449	H	0.315457	0.582791	0.564665
450	C	0.210507	0.913501	0.584832
451	H	0.220407	0.9333	0.558143
452	H	0.181939	0.897056	0.580913
453	H	0.22263	0.897056	0.580913
454	C	0.412322	0.7071	0.668879
455	C	0.432461	0.71717	0.628592
456	N	0.468389	0.735134	0.631484
457	C	0.486929	0.744403	0.670589
458	C	0.467921	0.734899	0.378382
459	C	0.430595	0.716237	0.376948
460	H	0.416587	0.709233	0.406435
461	C	0.486664	0.744271	0.419382
462	H	0.473407	0.737642	0.449365
463	C	0.417514	0.709695	0.582623
464	H	0.388704	0.695291	0.58224
465	H	0.426601	0.693935	0.564665
466	H	0.4266	0.734542	0.564665
467	C	0.190331	0.873147	0.670891
468	C	0.190328	0.819061	0.670891
469	N	0.208105	0.854992	0.670831
470	C	0.32094	0.634367	0.669323
471	N	0.356871	0.652519	0.669272
472	C	0.375024	0.688451	0.669323
473	N	0.356872	0.70623	0.669272
474	C	0.320941	0.688453	0.669323
475	N	0.303162	0.652521	0.669272
476	C	0.302292	0.7071	0.002213
477	C	0.292222	0.71717	0.961925
478	N	0.274259	0.735134	0.964817
479	C	0.264987	0.744403	0.003922
480	C	0.274493	0.734902	0.711716
481	C	0.293155	0.716237	0.710282
482	H	0.300159	0.709233	0.739768
483	C	0.246278	0.763113	0.670868
484	C	0.208983	0.800409	0.670337
485	N	0.236835	0.772557	0.965348
486	C	0.218855	0.790537	0.963121
487	C	0.218295	0.791095	0.711464
488	C	0.236968	0.772425	0.712297
489	C	0.246534	0.762857	0.753004
490	C	0.265121	0.744271	0.752715
491	H	0.240049	0.76934	0.783185
492	H	0.271749	0.737642	0.782695
493	H	0.211417	0.797972	0.741135
494	C	0.299697	0.709698	0.915956
495	H	0.314102	0.695293	0.915573
496	H	0.315457	0.734545	0.897998
497	H	0.274849	0.693935	0.897998
498	C	0.210506	0.798884	0.918166
499	H	0.220406	0.788986	0.891476
500	H	0.222628	0.827452	0.914246
501	H	0.181938	0.786763	0.914246
502	C	0.302292	0.597071	0.002213
503	C	0.292222	0.576931	0.961925
504	N	0.274259	0.541005	0.964817
505	C	0.264989	0.522464	0.003923
506	C	0.274492	0.54147	0.711716
507	C	0.293155	0.578797	0.710282
508	H	0.300159	0.592805	0.739768
509	C	0.246278	0.985042	0.670868
510	C	0.208984	0.910454	0.670337
511	N	0.236836	0.966158	0.965348
512	C	0.218855	0.930197	0.963121
513	C	0.218296	0.929079	0.711464
514	C	0.236968	0.966422	0.712297
515	C	0.246534	0.985555	0.753004
516	C	0.265121	0.522728	0.752715
517	H	0.240051	0.972588	0.783185
518	H	0.271749	0.535986	0.782698
519	H	0.211418	0.915322	0.741135
520	C	0.299696	0.591877	0.915956
521	H	0.314101	0.620689	0.915573
522	H	0.274849	0.582791	0.897998
523	H	0.315457	0.582791	0.897998
524	C	0.210507	0.913501	0.918166
525	H	0.220407	0.9333	0.891476
526	H	0.181939	0.897056	0.914246
527	H	0.22263	0.897056	0.914246
528	C	0.412322	0.7071	0.002213
529	C	0.432461	0.71717	0.961925
530	N	0.468389	0.735134	0.964817
531	C	0.486929	0.744403	0.003923
532	C	0.467921	0.734899	0.711716
533	C	0.430595	0.716237	0.710282
534	H	0.416587	0.709233	0.739768
535	C	0.486664	0.744271	0.752715
536	H	0.473407	0.737642	0.782698
537	C	0.417514	0.709695	0.915956
538	H	0.388704	0.695291	0.915573
539	H	0.426601	0.693935	0.897998
540	H	0.4266	0.734542	0.897998
541	C	0.69033	0.373147	0.004222
542	N	0.654401	0.354992	0.004164
543	C	0.636247	0.319062	0.004223
544	N	0.654401	0.301288	0.004164
545	C	0.690329	0.319062	0.004223
546	N	0.708104	0.354992	0.004164
547	C	0.820941	0.134368	0.002656
548	N	0.856871	0.15252	0.002605
549	C	0.875025	0.188452	0.002656
550	N	0.856873	0.206231	0.002605
551	C	0.82094	0.188452	0.002656
552	N	0.803162	0.152521	0.002605
553	C	0.802294	0.207101	0.335547
554	C	0.792224	0.217171	0.295258
555	N	0.774258	0.235134	0.29815
556	C	0.764988	0.244405	0.337256
557	C	0.774492	0.234901	0.045047
558	C	0.793156	0.216238	0.043614
559	H	0.800161	0.209234	0.073101
560	C	0.746278	0.263114	0.004199
561	C	0.708984	0.300408	0.00367
562	N	0.736836	0.272556	0.298681
563	C	0.718856	0.290536	0.296453
564	C	0.718296	0.291097	0.044795
565	C	0.736969	0.272424	0.045628
566	C	0.746535	0.262857	0.086336
567	C	0.765121	0.244272	0.086048
568	H	0.740051	0.269342	0.116519
569	H	0.77175	0.237644	0.116029
570	H	0.711418	0.297974	0.074468
571	C	0.799696	0.209697	0.249289
572	H	0.814104	0.195292	0.248907
573	H	0.815457	0.234544	0.23133
574	H	0.77485	0.193936	0.23133
575	C	0.710507	0.298886	0.251499
576	H	0.720405	0.288985	0.224809
577	H	0.722629	0.327454	0.24758
578	H	0.681939	0.286762	0.24758
579	C	0.802293	0.09707	0.335547
580	C	0.792223	0.076931	0.295258
581	N	0.77426	0.041004	0.29815
582	C	0.764989	0.022463	0.337256
583	C	0.774493	0.041471	0.045048
584	C	0.793156	0.078797	0.043614
585	H	0.80016	0.092805	0.073101
586	C	0.746279	0.485044	0.004199
587	C	0.708984	0.410455	0.00367
588	N	0.736835	0.466157	0.298681
589	C	0.718855	0.430196	0.296453
590	C	0.718296	0.429078	0.044795
591	C	0.736969	0.466424	0.045629
592	C	0.746535	0.485557	0.086336
593	C	0.765122	0.022729	0.086049
594	H	0.74005	0.472587	0.11652
595	H	0.771751	0.035985	0.11603
596	H	0.711419	0.415324	0.074468
597	C	0.799697	0.091878	0.249289
598	H	0.814102	0.120689	0.248907
599	H	0.774849	0.082792	0.23133
600	H	0.815459	0.082792	0.231331
601	C	0.710507	0.4135	0.251499
602	H	0.720408	0.433302	0.224809
603	H	0.681938	0.397055	0.24758
604	H	0.722631	0.397055	0.247579
605	C	0.912322	0.2071	0.335547
606	C	0.932461	0.21717	0.295258
607	N	0.968388	0.235134	0.29815
608	C	0.986929	0.244404	0.337256
609	C	0.967921	0.2349	0.045048
610	C	0.930596	0.216236	0.043614
611	H	0.916588	0.209233	0.073101
612	C	0.524349	0.263114	0.0042
613	C	0.598939	0.300411	0.00367
614	N	0.543235	0.272559	0.298682
615	C	0.579196	0.290539	0.296453
616	C	0.580313	0.291097	0.044796
617	C	0.542969	0.272424	0.045629
618	C	0.523837	0.262858	0.086337
619	C	0.986663	0.244271	0.086049
620	H	0.536804	0.269342	0.11652
621	H	0.973408	0.237643	0.11603
622	H	0.59407	0.297974	0.074469
623	C	0.917516	0.209696	0.249289
624	H	0.888706	0.195291	0.248907
625	H	0.926601	0.193936	0.231331
626	H	0.9266	0.234543	0.231331
627	C	0.595892	0.298886	0.2515
628	H	0.576091	0.288985	0.224809
629	H	0.612339	0.286765	0.24758
630	H	0.612337	0.327454	0.24758
631	C	0.69033	0.373147	0.337555
632	N	0.654401	0.354992	0.337498
633	C	0.636247	0.319062	0.337558
634	N	0.654401	0.301288	0.337498
635	C	0.690329	0.319062	0.337555
636	N	0.708104	0.354992	0.337498
637	C	0.820941	0.134368	0.33599
638	N	0.856871	0.15252	0.335939
639	C	0.875025	0.188452	0.33599
640	N	0.856873	0.206231	0.335939
641	C	0.82094	0.188452	0.335986
642	N	0.803162	0.152521	0.335939
643	C	0.802294	0.207101	0.668879
644	C	0.792224	0.217171	0.628592
645	N	0.774258	0.235134	0.631484
646	C	0.764988	0.244405	0.670589
647	C	0.774492	0.234901	0.378382
648	C	0.793156	0.216238	0.376948
649	H	0.800161	0.209234	0.406435
650	C	0.746278	0.263114	0.337531
651	C	0.708984	0.300408	0.337004
652	N	0.736836	0.272556	0.632014
653	C	0.718856	0.290536	0.629788
654	C	0.718296	0.291097	0.378127
655	C	0.736969	0.272424	0.378963
656	C	0.746535	0.262857	0.41967
657	C	0.765121	0.244272	0.419382
658	H	0.740051	0.269342	0.449852
659	H	0.77175	0.237644	0.449362
660	H	0.711418	0.297974	0.407802
661	C	0.799696	0.209697	0.582623
662	H	0.814104	0.195292	0.58224
663	H	0.815457	0.234544	0.564662
664	H	0.77485	0.193936	0.564665
665	C	0.710507	0.298886	0.584832
666	H	0.720405	0.288985	0.558143
667	H	0.722629	0.327454	0.580913
668	H	0.681939	0.286762	0.580913
669	C	0.802293	0.09707	0.668879
670	C	0.792223	0.076931	0.628592
671	N	0.77426	0.041004	0.631484
672	C	0.764989	0.022463	0.670589
673	C	0.774493	0.041471	0.378382
674	C	0.793156	0.078797	0.376948
675	H	0.80016	0.092805	0.406435
676	C	0.746279	0.485044	0.337534
677	C	0.708984	0.410455	0.337004
678	N	0.736835	0.466157	0.632014
679	C	0.718855	0.430196	0.629788
680	C	0.718296	0.429078	0.378131
681	C	0.736969	0.466424	0.378963
682	C	0.746535	0.485557	0.41967
683	C	0.765122	0.022729	0.419382
684	H	0.74005	0.472587	0.449852
685	H	0.771751	0.035985	0.449362
686	H	0.711419	0.415324	0.407802
687	C	0.799697	0.091878	0.582623
688	H	0.814102	0.120689	0.58224
689	H	0.774849	0.082792	0.564662
690	H	0.815459	0.082792	0.564665
691	C	0.710507	0.4135	0.584832
692	H	0.720408	0.433302	0.558143
693	H	0.681938	0.397055	0.580913
694	H	0.722631	0.397055	0.580913
695	C	0.912322	0.2071	0.668879
696	C	0.932461	0.21717	0.628592
697	N	0.968388	0.235134	0.631484
698	C	0.986929	0.244404	0.670589
699	C	0.967921	0.2349	0.378382
700	C	0.930596	0.216236	0.376948
701	H	0.916588	0.209233	0.406435
702	C	0.524349	0.263114	0.337534
703	C	0.598939	0.300411	0.337004
704	N	0.543235	0.272559	0.632014
705	C	0.579196	0.290539	0.629788
706	C	0.580313	0.291097	0.378131
707	C	0.542969	0.272424	0.378963
708	C	0.523837	0.262858	0.41967
709	C	0.986663	0.244271	0.419382
710	H	0.536804	0.269342	0.449856
711	H	0.973408	0.237643	0.449365
712	H	0.59407	0.297974	0.407802
713	C	0.917516	0.209696	0.582623
714	H	0.888706	0.195291	0.58224
715	H	0.926601	0.193936	0.564665
716	H	0.9266	0.234543	0.564665
717	C	0.595892	0.298886	0.584832
718	H	0.576091	0.288985	0.558143
719	H	0.612339	0.286765	0.580913
720	H	0.612337	0.327454	0.580913
721	C	0.69033	0.373147	0.670891
722	N	0.654401	0.354992	0.670831
723	C	0.636247	0.319062	0.670891
724	N	0.654401	0.301288	0.670831
725	C	0.690329	0.319062	0.670891
726	N	0.708104	0.354992	0.670831
727	C	0.820941	0.134368	0.669323
728	N	0.856871	0.15252	0.669272
729	C	0.875025	0.188452	0.669323
730	N	0.856873	0.206231	0.669272
731	C	0.82094	0.188452	0.669323
732	N	0.803162	0.152521	0.669272
733	C	0.802294	0.207101	0.002213
734	C	0.792224	0.217171	0.961925
735	N	0.774258	0.235134	0.964817
736	C	0.764988	0.244405	0.003922
737	C	0.774492	0.234901	0.711716
738	C	0.793156	0.216238	0.710282
739	H	0.800161	0.209234	0.739768
740	C	0.746278	0.263114	0.670868
741	C	0.708984	0.300408	0.670337
742	N	0.736836	0.272556	0.965348
743	C	0.718856	0.290536	0.963121
744	C	0.718296	0.291097	0.711464
745	C	0.736969	0.272424	0.712297
746	C	0.746535	0.262857	0.753004
747	C	0.765121	0.244272	0.752715
748	H	0.740051	0.269342	0.783185
749	H	0.77175	0.237644	0.782695
750	H	0.711418	0.297974	0.741135
751	C	0.799696	0.209697	0.915956
752	H	0.814104	0.195292	0.915573
753	H	0.815457	0.234544	0.897998
754	H	0.77485	0.193936	0.897998
755	C	0.710507	0.298886	0.918166
756	H	0.720405	0.288985	0.891476
757	H	0.722629	0.327454	0.914246
758	H	0.681939	0.286762	0.914246
759	C	0.802293	0.09707	0.002213
760	C	0.792223	0.076931	0.961925
761	N	0.77426	0.041004	0.964817
762	C	0.764989	0.022463	0.003923
763	C	0.774493	0.041471	0.711716
764	C	0.793156	0.078797	0.710282
765	H	0.80016	0.092805	0.739768
766	C	0.746279	0.485044	0.670868
767	C	0.708984	0.410455	0.670337
768	N	0.736835	0.466157	0.965348
769	C	0.718855	0.430196	0.963121
770	C	0.718296	0.429078	0.711464
771	C	0.736969	0.466424	0.712297
772	C	0.746535	0.485557	0.753004
773	C	0.765122	0.022729	0.752715
774	H	0.74005	0.472587	0.783185
775	H	0.771751	0.035985	0.782698
776	H	0.711419	0.415324	0.741135
777	C	0.799697	0.091878	0.915956
778	H	0.814102	0.120689	0.915573
779	H	0.774849	0.082792	0.897998
780	H	0.815459	0.082792	0.897998
781	C	0.710507	0.4135	0.918166
782	H	0.720408	0.433302	0.891476
783	H	0.681938	0.397055	0.914246
784	H	0.722631	0.397055	0.914246
785	C	0.912322	0.2071	0.002213
786	C	0.932461	0.21717	0.961925
787	N	0.968388	0.235134	0.964817
788	C	0.986929	0.244404	0.003923
789	C	0.967921	0.2349	0.711716
790	C	0.930596	0.216236	0.710282
791	H	0.916588	0.209233	0.739768
792	C	0.524349	0.263114	0.670868
793	C	0.598939	0.300411	0.670337
794	N	0.543235	0.272559	0.965348
795	C	0.579196	0.290539	0.963121
796	C	0.580313	0.291097	0.711464
797	C	0.542969	0.272424	0.712297
798	C	0.523837	0.262858	0.753004
799	C	0.986663	0.244271	0.752715
800	H	0.536804	0.269342	0.783189
801	H	0.973408	0.237643	0.782698
802	H	0.59407	0.297974	0.741135
803	C	0.917516	0.209696	0.915956
804	H	0.888706	0.195291	0.915573
805	H	0.926601	0.193936	0.897998
806	H	0.9266	0.234543	0.897998
807	C	0.595892	0.298886	0.918166
808	H	0.576091	0.288985	0.891476
809	H	0.612339	0.286765	0.914246
810	H	0.612337	0.327454	0.914246
811	C	0.690329	0.873147	0.004222
812	N	0.6544	0.854992	0.004164
813	C	0.636246	0.819063	0.004223
814	N	0.654399	0.801286	0.004164
815	C	0.690327	0.819061	0.004223
816	N	0.708106	0.854992	0.004164
817	C	0.82094	0.634367	0.002656
818	N	0.856872	0.652519	0.002605
819	C	0.875025	0.688451	0.002656
820	N	0.856872	0.70623	0.002605
821	C	0.820942	0.688453	0.002656
822	N	0.803161	0.652521	0.002605
823	C	0.802292	0.7071	0.335547
824	C	0.792222	0.71717	0.295258
825	N	0.77426	0.735134	0.29815
826	C	0.764987	0.744403	0.337256
827	C	0.774493	0.734902	0.045047
828	C	0.793154	0.716237	0.043614
829	H	0.800159	0.709233	0.073101
830	C	0.746277	0.763113	0.004199
831	C	0.708984	0.800409	0.00367
832	N	0.736835	0.772557	0.298681
833	C	0.718855	0.790537	0.296453
834	C	0.718296	0.791095	0.044795
835	C	0.736968	0.772425	0.045628
836	C	0.746533	0.762857	0.086336
837	C	0.76512	0.744271	0.086048
838	H	0.740049	0.76934	0.116519
839	H	0.771748	0.737642	0.116029
840	H	0.711416	0.797972	0.074468
841	C	0.799698	0.709698	0.249289
842	H	0.814103	0.695293	0.248907
843	H	0.815456	0.734545	0.23133
844	H	0.774848	0.693935	0.23133
845	C	0.710505	0.798884	0.251499
846	H	0.720407	0.788986	0.224809
847	H	0.722629	0.827452	0.24758
848	H	0.681938	0.786763	0.24758
849	C	0.802292	0.597071	0.335547
850	C	0.792222	0.576931	0.295258
851	N	0.774259	0.541005	0.29815
852	C	0.764989	0.522464	0.337256
853	C	0.774492	0.54147	0.045048
854	C	0.793155	0.578797	0.043614
855	H	0.800159	0.592805	0.073101
856	C	0.746277	0.985042	0.004199
857	C	0.708982	0.910454	0.00367
858	N	0.736834	0.966158	0.298681
859	C	0.718854	0.930197	0.296453
860	C	0.718295	0.929079	0.044795
861	C	0.736967	0.966422	0.045629
862	C	0.746533	0.985555	0.086336
863	C	0.765121	0.522728	0.086049
864	H	0.74005	0.972588	0.11652
865	H	0.771749	0.535986	0.11603
866	H	0.711417	0.915322	0.074468
867	C	0.799695	0.591877	0.249289
868	H	0.814101	0.620689	0.248907
869	H	0.774849	0.582791	0.23133
870	H	0.815457	0.582791	0.231331
871	C	0.710506	0.913501	0.251499
872	H	0.720406	0.9333	0.224809
873	H	0.68194	0.897056	0.24758
874	H	0.72263	0.897056	0.247579
875	C	0.912323	0.7071	0.335547
876	C	0.932462	0.71717	0.295258
877	N	0.96839	0.735134	0.29815
878	C	0.98693	0.744403	0.337256
879	C	0.967922	0.734899	0.045048
880	C	0.930595	0.716237	0.043614
881	H	0.916587	0.709233	0.073101
882	C	0.524348	0.763113	0.0042
883	C	0.598938	0.800409	0.00367
884	N	0.543234	0.772557	0.298682
885	C	0.579195	0.790537	0.296453
886	C	0.580313	0.791098	0.044796
887	C	0.542969	0.772425	0.045629
888	C	0.523835	0.762857	0.086337
889	C	0.986664	0.744271	0.086049
890	H	0.536805	0.769343	0.11652
891	H	0.973407	0.737642	0.11603
892	H	0.594068	0.797975	0.074469
893	C	0.917514	0.709695	0.249289
894	H	0.888704	0.695291	0.248907
895	H	0.926602	0.693935	0.231331
896	H	0.9266	0.734542	0.231331
897	C	0.595891	0.798886	0.2515
898	H	0.576091	0.788986	0.224809
899	H	0.612337	0.786763	0.24758
900	H	0.612337	0.827455	0.24758
901	C	0.690329	0.873147	0.337555
902	N	0.6544	0.854992	0.337498
903	C	0.636246	0.819063	0.337558
904	N	0.654399	0.801286	0.337498
905	C	0.690327	0.819061	0.337555
906	N	0.708106	0.854992	0.337498
907	C	0.82094	0.634367	0.33599
908	N	0.856872	0.652519	0.335939
909	C	0.875025	0.688451	0.33599
910	N	0.856872	0.70623	0.335939
911	C	0.820942	0.688453	0.335986
912	N	0.803161	0.652521	0.335939
913	C	0.802292	0.7071	0.668879
914	C	0.792222	0.71717	0.628592
915	N	0.77426	0.735134	0.631484
916	C	0.764987	0.744403	0.670589
917	C	0.774493	0.734902	0.378382
918	C	0.793154	0.716237	0.376948
919	H	0.800159	0.709233	0.406435
920	C	0.746277	0.763113	0.337531
921	C	0.708984	0.800409	0.337004
922	N	0.736835	0.772557	0.632014
923	C	0.718855	0.790537	0.629788
924	C	0.718296	0.791095	0.378127
925	C	0.736968	0.772425	0.378963
926	C	0.746533	0.762857	0.41967
927	C	0.76512	0.744271	0.419382
928	H	0.740049	0.76934	0.449852
929	H	0.771748	0.737642	0.449362
930	H	0.711416	0.797972	0.407802
931	C	0.799698	0.709698	0.582623
932	H	0.814103	0.695293	0.58224
933	H	0.815456	0.734545	0.564662
934	H	0.774848	0.693935	0.564665
935	C	0.710505	0.798884	0.584832
936	H	0.720407	0.788986	0.558143
937	H	0.722629	0.827452	0.580913
938	H	0.681938	0.786763	0.580913
939	C	0.802292	0.597071	0.668879
940	C	0.792222	0.576931	0.628592
941	N	0.774259	0.541005	0.631484
942	C	0.764989	0.522464	0.670589
943	C	0.774492	0.54147	0.378382
944	C	0.793155	0.578797	0.376948
945	H	0.800159	0.592805	0.406435
946	C	0.746277	0.985042	0.337534
947	C	0.708982	0.910454	0.337004
948	N	0.736834	0.966158	0.632014
949	C	0.718854	0.930197	0.629788
950	C	0.718295	0.929079	0.378131
951	C	0.736967	0.966422	0.378963
952	C	0.746533	0.985555	0.41967
953	C	0.765121	0.522728	0.419382
954	H	0.74005	0.972588	0.449852
955	H	0.771749	0.535986	0.449362
956	H	0.711417	0.915322	0.407802
957	C	0.799695	0.591877	0.582623
958	H	0.814101	0.620689	0.58224
959	H	0.774849	0.582791	0.564662
960	H	0.815457	0.582791	0.564665
961	C	0.710506	0.913501	0.584832
962	H	0.720406	0.9333	0.558143
963	H	0.68194	0.897056	0.580913
964	H	0.72263	0.897056	0.580913
965	C	0.912323	0.7071	0.668879
966	C	0.932462	0.71717	0.628592
967	N	0.96839	0.735134	0.631484
968	C	0.98693	0.744403	0.670589
969	C	0.967922	0.734899	0.378382
970	C	0.930595	0.716237	0.376948
971	H	0.916587	0.709233	0.406435
972	C	0.524348	0.763113	0.337534
973	C	0.598938	0.800409	0.337004
974	N	0.543234	0.772557	0.632014
975	C	0.579195	0.790537	0.629788
976	C	0.580313	0.791098	0.378131
977	C	0.542969	0.772425	0.378963
978	C	0.523835	0.762857	0.41967
979	C	0.986664	0.744271	0.419382
980	H	0.536805	0.769343	0.449856
981	H	0.973407	0.737642	0.449365
982	H	0.594068	0.797975	0.407802
983	C	0.917514	0.709695	0.582623
984	H	0.888704	0.695291	0.58224
985	H	0.926602	0.693935	0.564665
986	H	0.9266	0.734542	0.564665
987	C	0.595891	0.798886	0.584832
988	H	0.576091	0.788986	0.558143
989	H	0.612337	0.786763	0.580913
990	H	0.612337	0.827455	0.580913
991	C	0.690329	0.873147	0.670891
992	N	0.6544	0.854992	0.670831
993	C	0.636246	0.819063	0.670891
994	N	0.654399	0.801286	0.670831
995	C	0.690327	0.819061	0.670891
996	N	0.708106	0.854992	0.670831
997	C	0.82094	0.634367	0.669323
998	N	0.856872	0.652519	0.669272
999	C	0.875025	0.688451	0.669323
1000	N	0.856872	0.70623	0.669272
1001	C	0.820942	0.688453	0.669323
1002	N	0.803161	0.652521	0.669272
1003	C	0.802292	0.7071	0.002213
1004	C	0.792222	0.71717	0.961925
1005	N	0.77426	0.735134	0.964817
1006	C	0.764987	0.744403	0.003922
1007	C	0.774493	0.734902	0.711716
1008	C	0.793154	0.716237	0.710282
1009	H	0.800159	0.709233	0.739768
1010	C	0.746277	0.763113	0.670868
1011	C	0.708984	0.800409	0.670337
1012	N	0.736835	0.772557	0.965348
1013	C	0.718855	0.790537	0.963121
1014	C	0.718296	0.791095	0.711464
1015	C	0.736968	0.772425	0.712297
1016	C	0.746533	0.762857	0.753004
1017	C	0.76512	0.744271	0.752715
1018	H	0.740049	0.76934	0.783185
1019	H	0.771748	0.737642	0.782695
1020	H	0.711416	0.797972	0.741135
1021	C	0.799698	0.709698	0.915956
1022	H	0.814103	0.695293	0.915573
1023	H	0.815456	0.734545	0.897998
1024	H	0.774848	0.693935	0.897998
1025	C	0.710505	0.798884	0.918166
1026	H	0.720407	0.788986	0.891476
1027	H	0.722629	0.827452	0.914246
1028	H	0.681938	0.786763	0.914246
1029	C	0.802292	0.597071	0.002213
1030	C	0.792222	0.576931	0.961925
1031	N	0.774259	0.541005	0.964817
1032	C	0.764989	0.522464	0.003923
1033	C	0.774492	0.54147	0.711716
1034	C	0.793155	0.578797	0.710282
1035	H	0.800159	0.592805	0.739768
1036	C	0.746277	0.985042	0.670868
1037	C	0.708982	0.910454	0.670337
1038	N	0.736834	0.966158	0.965348
1039	C	0.718854	0.930197	0.963121
1040	C	0.718295	0.929079	0.711464
1041	C	0.736967	0.966422	0.712297
1042	C	0.746533	0.985555	0.753004
1043	C	0.765121	0.522728	0.752715
1044	H	0.74005	0.972588	0.783185
1045	H	0.771749	0.535986	0.782698
1046	H	0.711417	0.915322	0.741135
1047	C	0.799695	0.591877	0.915956
1048	H	0.814101	0.620689	0.915573
1049	H	0.774849	0.582791	0.897998
1050	H	0.815457	0.582791	0.897998
1051	C	0.710506	0.913501	0.918166
1052	H	0.720406	0.9333	0.891476
1053	H	0.68194	0.897056	0.914246
1054	H	0.72263	0.897056	0.914246
1055	C	0.912323	0.7071	0.002213
1056	C	0.932462	0.71717	0.961925
1057	N	0.96839	0.735134	0.964817
1058	C	0.98693	0.744403	0.003923
1059	C	0.967922	0.734899	0.711716
1060	C	0.930595	0.716237	0.710282
1061	H	0.916587	0.709233	0.739768
1062	C	0.524348	0.763113	0.670868
1063	C	0.598938	0.800409	0.670337
1064	N	0.543234	0.772557	0.965348
1065	C	0.579195	0.790537	0.963121
1066	C	0.580313	0.791098	0.711464
1067	C	0.542969	0.772425	0.712297
1068	C	0.523835	0.762857	0.753004
1069	C	0.986664	0.744271	0.752715
1070	H	0.536805	0.769343	0.783189
1071	H	0.973407	0.737642	0.782698
1072	H	0.594068	0.797975	0.741135
1073	C	0.917514	0.709695	0.915956
1074	H	0.888704	0.695291	0.915573
1075	H	0.926602	0.693935	0.897998
1076	H	0.9266	0.734542	0.897998
1077	C	0.595891	0.798886	0.918166
1078	H	0.576091	0.788986	0.891476
1079	H	0.612337	0.786763	0.914246
1080	H	0.612337	0.827455	0.914246
