data_C360H360N288O72_2018-02-15_10:32:29
#******************************************
#
# CIF file created by Zeo++
# Zeo++ is an open source package to
# analyze microporous materials
#
#*******************************************

_cell_length_a		44.0131   
_cell_length_b		44.0132   
_cell_length_c		30.1736   
_cell_angle_alpha		90   
_cell_angle_beta		90   
_cell_angle_gamma		120   

_symmetry_space_group_name_H-M		'P1'
_symmetry_Int_Tables_number		1
_symmetry_cell_setting		Monoclinic

loop_
_symmetry_equiv_pos_as_xyz
'+x,+y,+z'

loop_
_atom_site_label
_atom_site_type_symbol
_atom_site_fract_x
_atom_site_fract_y
_atom_site_fract_z
1	C	0.127059	0.318371	0.311447
2	N	0.150441	0.353275	0.978605
3	C	0.185558	0.365786	0.978416
4	N	0.197084	0.342405	0.978452
5	C	0.174476	0.307292	0.977958
6	N	0.13957	0.295767	0.978174
7	C	0.209564	0.401813	0.981839
8	C	0.186482	0.283255	0.981021
9	C	0.091016	0.306332	0.981273
10	O	0.161995	0.248696	0.983911
11	O	0.080938	0.330799	0.984504
12	O	0.244118	0.411879	0.984839
13	C	0.364354	0.176049	0.3492
14	N	0.34106	0.141121	0.015852
15	C	0.305928	0.128508	0.016371
16	N	0.294291	0.1518	0.016141
17	C	0.316813	0.186933	0.016165
18	N	0.351737	0.198565	0.015669
19	C	0.281998	0.092436	0.013398
20	C	0.304681	0.210862	0.012952
21	C	0.4004	0.188177	0.012395
22	O	0.329084	0.24543	0.009754
23	O	0.410562	0.163769	0.009254
24	O	0.247405	0.082239	0.010539
25	C	0.233726	0.2711	0.323014
26	C	0.257134	0.26923	0.291887
27	C	0.26712	0.243273	0.298015
28	C	0.257271	0.222794	0.004371
29	C	0.233817	0.224631	0.035461
30	C	0.223816	0.250583	0.029338
31	N	0.281836	0.234399	0.263885
32	H	0.283809	0.243529	0.234234
33	H	0.283853	0.213449	0.265198
34	N	0.268471	0.290835	0.255578
35	H	0.260311	0.307019	0.248556
36	H	0.288078	0.293862	0.237732
37	N	0.222442	0.203	0.071745
38	H	0.230588	0.186808	0.078779
39	H	0.202785	0.199927	0.089522
40	N	0.209056	0.259422	0.06345
41	H	0.206948	0.280314	0.062173
42	H	0.20709	0.250261	0.09309
43	N	0.269864	0.200534	0.012008
44	H	0.253213	0.176573	0.020824
45	N	0.221268	0.293482	0.315468
46	H	0.238021	0.317453	0.306798
47	C	0.22173	0.461207	0.323817
48	C	0.223554	0.486406	0.292585
49	C	0.249482	0.022374	0.298601
50	C	0.270047	0.033095	0.004879
51	C	0.268275	0.007889	0.03606
52	C	0.242338	0.471919	0.030069
53	N	0.258267	0.045901	0.264428
54	H	0.248958	0.038862	0.234831
55	H	0.279085	0.068988	0.265627
56	N	0.201958	0.47603	0.256263
57	H	0.185849	0.451652	0.249264
58	H	0.198895	0.492527	0.238316
59	N	0.289942	0.018261	0.072311
60	H	0.306124	0.042637	0.079235
61	H	0.293028	0.001753	0.090209
62	N	0.233607	0.448396	0.064244
63	H	0.212732	0.425351	0.063021
64	H	0.242883	0.455485	0.093837
65	N	0.292344	0.067964	0.012339
66	H	0.316341	0.075289	0.021003
67	N	0.199307	0.426351	0.316446
68	H	0.175362	0.419128	0.307649
69	C	0.031603	0.259051	0.322813
70	C	0.006428	0.235859	0.291422
71	C	0.470456	0.22582	0.297434
72	C	0.459723	0.235499	0.003839
73	C	0.484894	0.258689	0.035228
74	C	0.020853	0.268702	0.029226
75	N	0.446939	0.211167	0.263216
76	H	0.454151	0.209296	0.233563
77	H	0.423909	0.209003	0.264533
78	N	0.016828	0.224778	0.254987
79	H	0.041213	0.233034	0.248069
80	H	0.000341	0.205292	0.236924
81	N	0.47449	0.26976	0.071667
82	H	0.450117	0.261533	0.078608
83	H	0.490994	0.289226	0.089753
84	N	0.044331	0.283192	0.063493
85	H	0.06742	0.285488	0.06228
86	H	0.037207	0.28527	0.093134
87	N	0.42486	0.222998	0.01122
88	H	0.417589	0.239651	0.020174
89	N	0.066471	0.271533	0.315461
90	H	0.073702	0.254846	0.306526
91	C	0.127059	0.318371	0.644779
92	N	0.150441	0.353275	0.31194
93	C	0.185558	0.365786	0.311749
94	N	0.197084	0.342405	0.311786
95	C	0.174476	0.307292	0.311293
96	N	0.13957	0.295767	0.311506
97	C	0.209564	0.401813	0.315174
98	C	0.186482	0.283255	0.314356
99	C	0.091016	0.306332	0.314607
100	O	0.161995	0.248696	0.317244
101	O	0.080938	0.330799	0.317836
102	O	0.244118	0.411879	0.318174
103	C	0.364354	0.176049	0.682531
104	N	0.34106	0.141121	0.349186
105	C	0.305928	0.128508	0.349703
106	N	0.294291	0.1518	0.349475
107	C	0.316813	0.186933	0.349498
108	N	0.351737	0.198565	0.349001
109	C	0.281998	0.092436	0.346731
110	C	0.304681	0.210862	0.346286
111	C	0.4004	0.188177	0.345726
112	O	0.329084	0.24543	0.343088
113	O	0.410562	0.163769	0.342588
114	O	0.247405	0.082239	0.343874
115	C	0.233726	0.2711	0.656349
116	C	0.257134	0.26923	0.625219
117	C	0.26712	0.243273	0.631347
118	C	0.257271	0.222794	0.337703
119	C	0.233817	0.224631	0.368793
120	C	0.223816	0.250583	0.362672
121	N	0.281836	0.234399	0.597218
122	H	0.283809	0.243529	0.567566
123	H	0.283853	0.213449	0.59853
124	N	0.268471	0.290835	0.588909
125	H	0.260311	0.307019	0.58189
126	H	0.288078	0.293862	0.571066
127	N	0.222442	0.203	0.405076
128	H	0.230588	0.186808	0.412112
129	H	0.202785	0.199927	0.422853
130	N	0.209056	0.259422	0.396781
131	H	0.206948	0.280314	0.395505
132	H	0.20709	0.250261	0.426423
133	N	0.269864	0.200534	0.345342
134	H	0.253213	0.176573	0.354158
135	N	0.221268	0.293482	0.6488
136	H	0.238021	0.317453	0.64013
137	C	0.22173	0.461207	0.657151
138	C	0.223554	0.486406	0.625919
139	C	0.249482	0.022374	0.631934
140	C	0.270047	0.033095	0.338213
141	C	0.268275	0.007889	0.369393
142	C	0.242338	0.471919	0.363401
143	N	0.258267	0.045901	0.597762
144	H	0.248958	0.038862	0.568166
145	H	0.279085	0.068988	0.598961
146	N	0.201958	0.47603	0.589595
147	H	0.185849	0.451652	0.582596
148	H	0.198895	0.492527	0.571649
149	N	0.289942	0.018261	0.405643
150	H	0.306124	0.042637	0.41257
151	H	0.293028	0.001753	0.423543
152	N	0.233607	0.448396	0.397576
153	H	0.212732	0.425351	0.396353
154	H	0.242883	0.455485	0.427172
155	N	0.292344	0.067964	0.345673
156	H	0.316341	0.075289	0.354337
157	N	0.199307	0.426351	0.649777
158	H	0.175362	0.419128	0.640981
159	C	0.031603	0.259051	0.656147
160	C	0.006428	0.235859	0.624755
161	C	0.470456	0.22582	0.630767
162	C	0.459723	0.235499	0.337173
163	C	0.484894	0.258689	0.368561
164	C	0.020853	0.268702	0.362559
165	N	0.446939	0.211167	0.596549
166	H	0.454151	0.209296	0.566897
167	H	0.423909	0.209003	0.597868
168	N	0.016828	0.224778	0.588319
169	H	0.041213	0.233034	0.581403
170	H	0.000341	0.205292	0.570257
171	N	0.47449	0.26976	0.405
172	H	0.450117	0.261533	0.41194
173	H	0.490994	0.289226	0.423085
174	N	0.044331	0.283192	0.396824
175	H	0.06742	0.285488	0.395614
176	H	0.037207	0.28527	0.426466
177	N	0.42486	0.222998	0.344553
178	H	0.417589	0.239651	0.353508
179	N	0.066471	0.271533	0.648793
180	H	0.073702	0.254846	0.639858
181	C	0.127059	0.318371	0.978114
182	N	0.150441	0.353275	0.645273
183	C	0.185558	0.365786	0.645081
184	N	0.197084	0.342405	0.645121
185	C	0.174476	0.307292	0.644627
186	N	0.13957	0.295767	0.644839
187	C	0.209564	0.401813	0.648508
188	C	0.186482	0.283255	0.647689
189	C	0.091016	0.306332	0.647941
190	O	0.161995	0.248696	0.650576
191	O	0.080938	0.330799	0.651169
192	O	0.244118	0.411879	0.651507
193	C	0.364354	0.176049	0.015867
194	N	0.34106	0.141121	0.682518
195	C	0.305928	0.128508	0.683038
196	N	0.294291	0.1518	0.682806
197	C	0.316813	0.186933	0.682829
198	N	0.351737	0.198565	0.682336
199	C	0.281998	0.092436	0.680065
200	C	0.304681	0.210862	0.679618
201	C	0.4004	0.188177	0.679061
202	O	0.329084	0.24543	0.67642
203	O	0.410562	0.163769	0.675919
204	O	0.247405	0.082239	0.677205
205	C	0.233726	0.2711	0.989681
206	C	0.257134	0.26923	0.958554
207	C	0.26712	0.243273	0.964682
208	C	0.257271	0.222794	0.671038
209	C	0.233817	0.224631	0.702128
210	C	0.223816	0.250583	0.696003
211	N	0.281836	0.234399	0.930549
212	H	0.283809	0.243529	0.900901
213	H	0.283853	0.213449	0.931865
214	N	0.268471	0.290835	0.922244
215	H	0.260311	0.307019	0.915221
216	H	0.288078	0.293862	0.904397
217	N	0.222442	0.203	0.738411
218	H	0.230588	0.186808	0.745444
219	H	0.202785	0.199927	0.756188
220	N	0.209056	0.259422	0.730116
221	H	0.206948	0.280314	0.72884
222	H	0.20709	0.250261	0.759758
223	N	0.269864	0.200534	0.678673
224	H	0.253213	0.176573	0.687489
225	N	0.221268	0.293482	0.982134
226	H	0.238021	0.317453	0.973464
227	C	0.22173	0.461207	0.990483
228	C	0.223554	0.486406	0.95925
229	C	0.249482	0.022374	0.965269
230	C	0.270047	0.033095	0.671545
231	C	0.268275	0.007889	0.702724
232	C	0.242338	0.471919	0.696736
233	N	0.258267	0.045901	0.931093
234	H	0.248958	0.038862	0.901498
235	H	0.279085	0.068988	0.932293
236	N	0.201958	0.47603	0.92293
237	H	0.185849	0.451652	0.915931
238	H	0.198895	0.492527	0.904981
239	N	0.289942	0.018261	0.738978
240	H	0.306124	0.042637	0.745901
241	H	0.293028	0.001753	0.756874
242	N	0.233607	0.448396	0.730911
243	H	0.212732	0.425351	0.729688
244	H	0.242883	0.455485	0.760503
245	N	0.292344	0.067964	0.679005
246	H	0.316341	0.075289	0.687668
247	N	0.199307	0.426351	0.983112
248	H	0.175362	0.419128	0.974316
249	C	0.031603	0.259051	0.989478
250	C	0.006428	0.235859	0.958087
251	C	0.470456	0.22582	0.964099
252	C	0.459723	0.235499	0.670504
253	C	0.484894	0.258689	0.701892
254	C	0.020853	0.268702	0.695894
255	N	0.446939	0.211167	0.929883
256	H	0.454151	0.209296	0.900228
257	H	0.423909	0.209003	0.931199
258	N	0.016828	0.224778	0.921654
259	H	0.041213	0.233034	0.914734
260	H	0.000341	0.205292	0.903589
261	N	0.47449	0.26976	0.738332
262	H	0.450117	0.261533	0.745275
263	H	0.490994	0.289226	0.75642
264	N	0.044331	0.283192	0.730159
265	H	0.06742	0.285488	0.728946
266	H	0.037207	0.28527	0.759801
267	N	0.42486	0.222998	0.677885
268	H	0.417589	0.239651	0.686839
269	N	0.066471	0.271533	0.982128
270	H	0.073702	0.254846	0.973193
271	C	0.12706	0.818372	0.311447
272	N	0.150442	0.853276	0.978605
273	C	0.185558	0.865785	0.978416
274	N	0.197083	0.842404	0.978452
275	C	0.174476	0.807291	0.977958
276	N	0.139571	0.795768	0.978174
277	C	0.209564	0.901814	0.981839
278	C	0.186482	0.783256	0.981021
279	C	0.091017	0.806333	0.981273
280	O	0.161995	0.748696	0.983911
281	O	0.080938	0.830797	0.984501
282	O	0.244118	0.911878	0.984842
283	C	0.364354	0.676048	0.3492
284	N	0.341061	0.641121	0.015852
285	C	0.305928	0.628507	0.016371
286	N	0.294292	0.651801	0.016141
287	C	0.316813	0.686933	0.016165
288	N	0.351738	0.698566	0.015669
289	C	0.281998	0.592436	0.013398
290	C	0.304681	0.710862	0.012952
291	C	0.4004	0.688177	0.012395
292	O	0.329084	0.74543	0.009754
293	O	0.410562	0.663767	0.009254
294	O	0.247406	0.582238	0.01054
295	C	0.233727	0.771101	0.323015
296	C	0.257134	0.769228	0.291887
297	C	0.267121	0.743274	0.298016
298	C	0.257271	0.722794	0.004371
299	C	0.233817	0.724631	0.035461
300	C	0.223816	0.750583	0.029338
301	N	0.281836	0.734398	0.263885
302	H	0.283808	0.743528	0.234234
303	H	0.283853	0.713449	0.265198
304	N	0.268471	0.790833	0.255578
305	H	0.260312	0.80702	0.248556
306	H	0.288079	0.793863	0.237732
307	N	0.222442	0.703	0.071745
308	H	0.230588	0.686807	0.078779
309	H	0.202785	0.699928	0.089522
310	N	0.209056	0.759421	0.06345
311	H	0.206947	0.780313	0.062173
312	H	0.207089	0.75026	0.09309
313	N	0.269865	0.700534	0.012008
314	H	0.253213	0.676573	0.020824
315	N	0.221269	0.793483	0.315468
316	H	0.238021	0.817454	0.306798
317	C	0.22173	0.961208	0.323817
318	C	0.223555	0.986407	0.292585
319	C	0.249482	0.522375	0.298601
320	C	0.270047	0.533094	0.004879
321	C	0.268275	0.50789	0.03606
322	C	0.242337	0.971917	0.030069
323	N	0.258269	0.545902	0.264428
324	H	0.248957	0.538861	0.234832
325	H	0.279086	0.568987	0.265627
326	N	0.201957	0.976028	0.256263
327	H	0.185849	0.951651	0.249264
328	H	0.198894	0.992528	0.238316
329	N	0.289943	0.518261	0.072311
330	H	0.306125	0.542636	0.079236
331	H	0.293028	0.501754	0.090209
332	N	0.233606	0.948395	0.064245
333	H	0.212732	0.92535	0.063021
334	H	0.242885	0.955486	0.093837
335	N	0.292344	0.567964	0.012339
336	H	0.316341	0.575289	0.021003
337	N	0.199308	0.926352	0.316446
338	H	0.175363	0.919127	0.307649
339	C	0.031603	0.759052	0.322813
340	C	0.006429	0.73586	0.291422
341	C	0.470455	0.725819	0.297433
342	C	0.459723	0.735497	0.003838
343	C	0.484893	0.75869	0.035228
344	C	0.020854	0.768704	0.029226
345	N	0.44694	0.711167	0.263216
346	H	0.454152	0.709296	0.233563
347	H	0.423908	0.709002	0.264533
348	N	0.016829	0.724778	0.254986
349	H	0.041212	0.733034	0.248068
350	H	0.000341	0.705293	0.236924
351	N	0.47449	0.769758	0.071667
352	H	0.450117	0.761533	0.078608
353	H	0.490993	0.789225	0.089753
354	N	0.044331	0.783191	0.063492
355	H	0.067418	0.785486	0.06228
356	H	0.037207	0.785269	0.093133
357	N	0.42486	0.722996	0.011219
358	H	0.41759	0.739651	0.020173
359	N	0.066472	0.771534	0.31546
360	H	0.073703	0.754846	0.306525
361	C	0.12706	0.818372	0.644779
362	N	0.150442	0.853276	0.31194
363	C	0.185558	0.865785	0.311749
364	N	0.197083	0.842404	0.311787
365	C	0.174476	0.807291	0.311293
366	N	0.139571	0.795768	0.311506
367	C	0.209564	0.901814	0.315174
368	C	0.186482	0.783256	0.314356
369	C	0.091017	0.806333	0.314606
370	O	0.161995	0.748696	0.317244
371	O	0.080938	0.830797	0.317836
372	O	0.244118	0.911878	0.318174
373	C	0.364354	0.676048	0.682531
374	N	0.341061	0.641121	0.349186
375	C	0.305928	0.628507	0.349703
376	N	0.294292	0.651801	0.349475
377	C	0.316813	0.686933	0.349498
378	N	0.351738	0.698566	0.349001
379	C	0.281998	0.592436	0.346731
380	C	0.304681	0.710862	0.346286
381	C	0.4004	0.688177	0.345726
382	O	0.329084	0.74543	0.343088
383	O	0.410562	0.663767	0.342588
384	O	0.247406	0.582238	0.343874
385	C	0.233727	0.771101	0.656349
386	C	0.257134	0.769228	0.625219
387	C	0.267121	0.743274	0.631347
388	C	0.257271	0.722794	0.337703
389	C	0.233817	0.724631	0.368793
390	C	0.223816	0.750583	0.362672
391	N	0.281836	0.734398	0.597218
392	H	0.283808	0.743528	0.567566
393	H	0.283853	0.713449	0.59853
394	N	0.268471	0.790833	0.588909
395	H	0.260312	0.80702	0.58189
396	H	0.288079	0.793863	0.571066
397	N	0.222442	0.703	0.405076
398	H	0.230588	0.686807	0.412112
399	H	0.202785	0.699928	0.422857
400	N	0.209056	0.759421	0.396781
401	H	0.206947	0.780313	0.395505
402	H	0.207089	0.75026	0.426423
403	N	0.269865	0.700534	0.345342
404	H	0.253213	0.676573	0.354158
405	N	0.221269	0.793483	0.6488
406	H	0.238021	0.817454	0.64013
407	C	0.22173	0.961208	0.657151
408	C	0.223555	0.986407	0.625919
409	C	0.249482	0.522375	0.631934
410	C	0.270047	0.533094	0.338213
411	C	0.268275	0.50789	0.369393
412	C	0.242337	0.971917	0.363401
413	N	0.258269	0.545902	0.597762
414	H	0.248957	0.538861	0.568166
415	H	0.279086	0.568987	0.598961
416	N	0.201957	0.976028	0.589595
417	H	0.185849	0.951651	0.582596
418	H	0.198894	0.992528	0.571649
419	N	0.289943	0.518261	0.405643
420	H	0.306125	0.542636	0.41257
421	H	0.293028	0.501754	0.423543
422	N	0.233606	0.948395	0.397576
423	H	0.212732	0.92535	0.396353
424	H	0.242885	0.955486	0.427172
425	N	0.292344	0.567964	0.345673
426	H	0.316341	0.575289	0.354337
427	N	0.199308	0.926352	0.649777
428	H	0.175363	0.919127	0.640981
429	C	0.031603	0.759052	0.656147
430	C	0.006429	0.73586	0.624755
431	C	0.470455	0.725819	0.630767
432	C	0.459723	0.735497	0.337173
433	C	0.484893	0.75869	0.368561
434	C	0.020854	0.768704	0.362559
435	N	0.44694	0.711167	0.596549
436	H	0.454152	0.709296	0.566897
437	H	0.423908	0.709002	0.597864
438	N	0.016829	0.724778	0.588319
439	H	0.041212	0.733034	0.581403
440	H	0.000341	0.705293	0.570257
441	N	0.47449	0.769758	0.405
442	H	0.450117	0.761533	0.41194
443	H	0.490993	0.789225	0.423085
444	N	0.044331	0.783191	0.396824
445	H	0.067418	0.785486	0.395614
446	H	0.037207	0.785269	0.426466
447	N	0.42486	0.722996	0.344553
448	H	0.41759	0.739651	0.353508
449	N	0.066472	0.771534	0.648793
450	H	0.073703	0.754846	0.639858
451	C	0.12706	0.818372	0.978114
452	N	0.150442	0.853276	0.645273
453	C	0.185558	0.865785	0.645081
454	N	0.197083	0.842404	0.645121
455	C	0.174476	0.807291	0.644627
456	N	0.139571	0.795768	0.644839
457	C	0.209564	0.901814	0.648508
458	C	0.186482	0.783256	0.647689
459	C	0.091017	0.806333	0.647941
460	O	0.161995	0.748696	0.650576
461	O	0.080938	0.830797	0.651169
462	O	0.244118	0.911878	0.651507
463	C	0.364354	0.676048	0.015866
464	N	0.341061	0.641121	0.682518
465	C	0.305928	0.628507	0.683038
466	N	0.294292	0.651801	0.682806
467	C	0.316813	0.686933	0.682829
468	N	0.351738	0.698566	0.682336
469	C	0.281998	0.592436	0.680065
470	C	0.304681	0.710862	0.679618
471	C	0.4004	0.688177	0.679061
472	O	0.329084	0.74543	0.67642
473	O	0.410562	0.663767	0.675919
474	O	0.247406	0.582238	0.677205
475	C	0.233727	0.771101	0.989681
476	C	0.257134	0.769228	0.958554
477	C	0.267121	0.743274	0.964682
478	C	0.257271	0.722794	0.671038
479	C	0.233817	0.724631	0.702128
480	C	0.223816	0.750583	0.696003
481	N	0.281836	0.734398	0.930553
482	H	0.283808	0.743528	0.900901
483	H	0.283853	0.713449	0.931865
484	N	0.268471	0.790833	0.922244
485	H	0.260312	0.80702	0.915221
486	H	0.288079	0.793863	0.904397
487	N	0.222442	0.703	0.738411
488	H	0.230588	0.686807	0.745444
489	H	0.202785	0.699928	0.756188
490	N	0.209056	0.759421	0.730116
491	H	0.206947	0.780313	0.72884
492	H	0.207089	0.75026	0.759758
493	N	0.269865	0.700534	0.678673
494	H	0.253213	0.676573	0.687489
495	N	0.221269	0.793483	0.982134
496	H	0.238021	0.817454	0.973464
497	C	0.22173	0.961208	0.990483
498	C	0.223555	0.986407	0.95925
499	C	0.249482	0.522375	0.965269
500	C	0.270047	0.533094	0.671545
501	C	0.268275	0.50789	0.702724
502	C	0.242337	0.971917	0.696736
503	N	0.258269	0.545902	0.931093
504	H	0.248957	0.538861	0.901498
505	H	0.279086	0.568987	0.932293
506	N	0.201957	0.976028	0.92293
507	H	0.185849	0.951651	0.915931
508	H	0.198894	0.992528	0.904981
509	N	0.289943	0.518261	0.738978
510	H	0.306125	0.542636	0.745901
511	H	0.293028	0.501754	0.756874
512	N	0.233606	0.948395	0.730911
513	H	0.212732	0.92535	0.729688
514	H	0.242885	0.955486	0.760503
515	N	0.292344	0.567964	0.679005
516	H	0.316341	0.575289	0.687668
517	N	0.199308	0.926352	0.983112
518	H	0.175363	0.919127	0.974316
519	C	0.031603	0.759052	0.989478
520	C	0.006429	0.73586	0.958087
521	C	0.470455	0.725819	0.964099
522	C	0.459723	0.735497	0.670504
523	C	0.484893	0.75869	0.701892
524	C	0.020854	0.768704	0.695894
525	N	0.44694	0.711167	0.929883
526	H	0.454152	0.709296	0.900228
527	H	0.423908	0.709002	0.931199
528	N	0.016829	0.724778	0.921651
529	H	0.041212	0.733034	0.914734
530	H	0.000341	0.705293	0.903589
531	N	0.47449	0.769758	0.738332
532	H	0.450117	0.761533	0.745275
533	H	0.490993	0.789225	0.75642
534	N	0.044331	0.783191	0.730159
535	H	0.067418	0.785486	0.728946
536	H	0.037207	0.785269	0.759801
537	N	0.42486	0.722996	0.677885
538	H	0.41759	0.739651	0.686839
539	N	0.066472	0.771534	0.982128
540	H	0.073703	0.754846	0.973193
541	C	0.62706	0.318371	0.311447
542	N	0.650442	0.353275	0.978605
543	C	0.685558	0.365786	0.978416
544	N	0.697085	0.342405	0.978452
545	C	0.674478	0.307292	0.977958
546	N	0.639571	0.295767	0.978174
547	C	0.709564	0.401813	0.981839
548	C	0.686482	0.283255	0.981021
549	C	0.591018	0.306332	0.981273
550	O	0.661995	0.248696	0.983911
551	O	0.580937	0.330799	0.984504
552	O	0.744118	0.411879	0.984839
553	C	0.864355	0.176049	0.3492
554	N	0.841061	0.141121	0.015852
555	C	0.805929	0.128508	0.016371
556	N	0.794291	0.1518	0.016141
557	C	0.816813	0.186933	0.016165
558	N	0.851738	0.198565	0.015669
559	C	0.781997	0.092436	0.013398
560	C	0.804682	0.210862	0.012952
561	C	0.900401	0.188177	0.012395
562	O	0.829084	0.24543	0.009754
563	O	0.910563	0.163769	0.009254
564	O	0.747407	0.082239	0.010539
565	C	0.733727	0.2711	0.323014
566	C	0.757134	0.26923	0.291887
567	C	0.76712	0.243273	0.298015
568	C	0.757271	0.222794	0.004371
569	C	0.733817	0.224631	0.035461
570	C	0.723816	0.250583	0.029338
571	N	0.781836	0.234399	0.263885
572	H	0.783809	0.243529	0.234234
573	H	0.783853	0.213449	0.265198
574	N	0.768473	0.290835	0.255578
575	H	0.760311	0.307019	0.248556
576	H	0.788079	0.293862	0.237732
577	N	0.722443	0.203	0.071745
578	H	0.73059	0.186808	0.078779
579	H	0.702787	0.199927	0.089522
580	N	0.709057	0.259422	0.06345
581	H	0.706948	0.280314	0.062173
582	H	0.70709	0.250261	0.09309
583	N	0.769865	0.200534	0.012008
584	H	0.753214	0.176573	0.020824
585	N	0.721268	0.293482	0.315468
586	H	0.73802	0.317453	0.306798
587	C	0.72173	0.461207	0.323817
588	C	0.723554	0.486406	0.292585
589	C	0.749481	0.022374	0.298601
590	C	0.770048	0.033095	0.004879
591	C	0.768276	0.007889	0.03606
592	C	0.742339	0.471919	0.030069
593	N	0.758268	0.045901	0.264428
594	H	0.748957	0.038862	0.234831
595	H	0.779086	0.068988	0.265627
596	N	0.701959	0.47603	0.256263
597	H	0.685849	0.451652	0.249264
598	H	0.698895	0.492527	0.238316
599	N	0.789944	0.018261	0.072311
600	H	0.806126	0.042637	0.079235
601	H	0.793027	0.001753	0.090209
602	N	0.733608	0.448396	0.064244
603	H	0.712732	0.425351	0.063021
604	H	0.742883	0.455485	0.093837
605	N	0.792345	0.067964	0.012339
606	H	0.816342	0.075289	0.021003
607	N	0.699308	0.426351	0.316446
608	H	0.675362	0.419128	0.307649
609	C	0.531604	0.259051	0.322813
610	C	0.506428	0.235859	0.291422
611	C	0.970455	0.22582	0.297434
612	C	0.959724	0.235499	0.003839
613	C	0.984892	0.258689	0.035228
614	C	0.520852	0.268702	0.029226
615	N	0.94694	0.211167	0.263216
616	H	0.954152	0.209296	0.233563
617	H	0.923908	0.209003	0.264533
618	N	0.516828	0.224778	0.254987
619	H	0.541213	0.233034	0.248069
620	H	0.500342	0.205292	0.236924
621	N	0.974492	0.26976	0.071667
622	H	0.950118	0.261533	0.078608
623	H	0.990993	0.289226	0.089753
624	N	0.544331	0.283192	0.063493
625	H	0.56742	0.285488	0.06228
626	H	0.537209	0.28527	0.093134
627	N	0.924861	0.222998	0.01122
628	H	0.917591	0.239651	0.020174
629	N	0.566471	0.271533	0.315461
630	H	0.573702	0.254846	0.306526
631	C	0.62706	0.318371	0.644779
632	N	0.650442	0.353275	0.31194
633	C	0.685558	0.365786	0.311749
634	N	0.697085	0.342405	0.311786
635	C	0.674478	0.307292	0.311293
636	N	0.639571	0.295767	0.311506
637	C	0.709564	0.401813	0.315174
638	C	0.686482	0.283255	0.314356
639	C	0.591018	0.306332	0.314607
640	O	0.661995	0.248696	0.317244
641	O	0.580937	0.330799	0.317836
642	O	0.744118	0.411879	0.318174
643	C	0.864355	0.176049	0.682531
644	N	0.841061	0.141121	0.349186
645	C	0.805929	0.128508	0.349703
646	N	0.794291	0.1518	0.349475
647	C	0.816813	0.186933	0.349498
648	N	0.851738	0.198565	0.349001
649	C	0.781997	0.092436	0.346731
650	C	0.804682	0.210862	0.346286
651	C	0.900401	0.188177	0.345726
652	O	0.829084	0.24543	0.343088
653	O	0.910563	0.163769	0.342588
654	O	0.747407	0.082239	0.343874
655	C	0.733727	0.2711	0.656349
656	C	0.757134	0.26923	0.625219
657	C	0.76712	0.243273	0.631347
658	C	0.757271	0.222794	0.337703
659	C	0.733817	0.224631	0.368793
660	C	0.723816	0.250583	0.362672
661	N	0.781836	0.234399	0.597218
662	H	0.783809	0.243529	0.567566
663	H	0.783853	0.213449	0.59853
664	N	0.768473	0.290835	0.588909
665	H	0.760311	0.307019	0.58189
666	H	0.788079	0.293862	0.571066
667	N	0.722443	0.203	0.405076
668	H	0.73059	0.186808	0.412112
669	H	0.702787	0.199927	0.422853
670	N	0.709057	0.259422	0.396781
671	H	0.706948	0.280314	0.395505
672	H	0.70709	0.250261	0.426423
673	N	0.769865	0.200534	0.345342
674	H	0.753214	0.176573	0.354158
675	N	0.721268	0.293482	0.6488
676	H	0.73802	0.317453	0.64013
677	C	0.72173	0.461207	0.657151
678	C	0.723554	0.486406	0.625919
679	C	0.749481	0.022374	0.631934
680	C	0.770048	0.033095	0.338213
681	C	0.768276	0.007889	0.369393
682	C	0.742339	0.471919	0.363401
683	N	0.758268	0.045901	0.597762
684	H	0.748957	0.038862	0.568166
685	H	0.779086	0.068988	0.598961
686	N	0.701959	0.47603	0.589595
687	H	0.685849	0.451652	0.582596
688	H	0.698895	0.492527	0.571649
689	N	0.789944	0.018261	0.405643
690	H	0.806126	0.042637	0.41257
691	H	0.793027	0.001753	0.423543
692	N	0.733608	0.448396	0.397576
693	H	0.712732	0.425351	0.396353
694	H	0.742883	0.455485	0.427172
695	N	0.792345	0.067964	0.345673
696	H	0.816342	0.075289	0.354337
697	N	0.699308	0.426351	0.649777
698	H	0.675362	0.419128	0.640981
699	C	0.531604	0.259051	0.656147
700	C	0.506428	0.235859	0.624755
701	C	0.970455	0.22582	0.630767
702	C	0.959724	0.235499	0.337173
703	C	0.984892	0.258689	0.368561
704	C	0.520852	0.268702	0.362559
705	N	0.94694	0.211167	0.596549
706	H	0.954152	0.209296	0.566897
707	H	0.923908	0.209003	0.597868
708	N	0.516828	0.224778	0.588319
709	H	0.541213	0.233034	0.581403
710	H	0.500342	0.205292	0.570257
711	N	0.974492	0.26976	0.405
712	H	0.950118	0.261533	0.41194
713	H	0.990993	0.289226	0.423085
714	N	0.544331	0.283192	0.396824
715	H	0.56742	0.285488	0.395614
716	H	0.537209	0.28527	0.426466
717	N	0.924861	0.222998	0.344553
718	H	0.917591	0.239651	0.353508
719	N	0.566471	0.271533	0.648793
720	H	0.573702	0.254846	0.639858
721	C	0.62706	0.318371	0.978114
722	N	0.650442	0.353275	0.645273
723	C	0.685558	0.365786	0.645081
724	N	0.697085	0.342405	0.645121
725	C	0.674478	0.307292	0.644627
726	N	0.639571	0.295767	0.644839
727	C	0.709564	0.401813	0.648508
728	C	0.686482	0.283255	0.647689
729	C	0.591018	0.306332	0.647941
730	O	0.661995	0.248696	0.650576
731	O	0.580937	0.330799	0.651169
732	O	0.744118	0.411879	0.651507
733	C	0.864355	0.176049	0.015867
734	N	0.841061	0.141121	0.682518
735	C	0.805929	0.128508	0.683038
736	N	0.794291	0.1518	0.682806
737	C	0.816813	0.186933	0.682829
738	N	0.851738	0.198565	0.682336
739	C	0.781997	0.092436	0.680065
740	C	0.804682	0.210862	0.679618
741	C	0.900401	0.188177	0.679061
742	O	0.829084	0.24543	0.67642
743	O	0.910563	0.163769	0.675919
744	O	0.747407	0.082239	0.677205
745	C	0.733727	0.2711	0.989681
746	C	0.757134	0.26923	0.958554
747	C	0.76712	0.243273	0.964682
748	C	0.757271	0.222794	0.671038
749	C	0.733817	0.224631	0.702128
750	C	0.723816	0.250583	0.696003
751	N	0.781836	0.234399	0.930549
752	H	0.783809	0.243529	0.900901
753	H	0.783853	0.213449	0.931865
754	N	0.768473	0.290835	0.922244
755	H	0.760311	0.307019	0.915221
756	H	0.788079	0.293862	0.904397
757	N	0.722443	0.203	0.738411
758	H	0.73059	0.186808	0.745444
759	H	0.702787	0.199927	0.756188
760	N	0.709057	0.259422	0.730116
761	H	0.706948	0.280314	0.72884
762	H	0.70709	0.250261	0.759758
763	N	0.769865	0.200534	0.678673
764	H	0.753214	0.176573	0.687489
765	N	0.721268	0.293482	0.982134
766	H	0.73802	0.317453	0.973464
767	C	0.72173	0.461207	0.990483
768	C	0.723554	0.486406	0.95925
769	C	0.749481	0.022374	0.965269
770	C	0.770048	0.033095	0.671545
771	C	0.768276	0.007889	0.702724
772	C	0.742339	0.471919	0.696736
773	N	0.758268	0.045901	0.931093
774	H	0.748957	0.038862	0.901498
775	H	0.779086	0.068988	0.932293
776	N	0.701959	0.47603	0.92293
777	H	0.685849	0.451652	0.915931
778	H	0.698895	0.492527	0.904981
779	N	0.789944	0.018261	0.738978
780	H	0.806126	0.042637	0.745901
781	H	0.793027	0.001753	0.756874
782	N	0.733608	0.448396	0.730911
783	H	0.712732	0.425351	0.729688
784	H	0.742883	0.455485	0.760503
785	N	0.792345	0.067964	0.679005
786	H	0.816342	0.075289	0.687668
787	N	0.699308	0.426351	0.983112
788	H	0.675362	0.419128	0.974316
789	C	0.531604	0.259051	0.989478
790	C	0.506428	0.235859	0.958087
791	C	0.970455	0.22582	0.964099
792	C	0.959724	0.235499	0.670504
793	C	0.984892	0.258689	0.701892
794	C	0.520852	0.268702	0.695894
795	N	0.94694	0.211167	0.929883
796	H	0.954152	0.209296	0.900228
797	H	0.923908	0.209003	0.931199
798	N	0.516828	0.224778	0.921654
799	H	0.541213	0.233034	0.914734
800	H	0.500342	0.205292	0.903589
801	N	0.974492	0.26976	0.738332
802	H	0.950118	0.261533	0.745275
803	H	0.990993	0.289226	0.75642
804	N	0.544331	0.283192	0.730159
805	H	0.56742	0.285488	0.728946
806	H	0.537209	0.28527	0.759801
807	N	0.924861	0.222998	0.677885
808	H	0.917591	0.239651	0.686839
809	N	0.566471	0.271533	0.982128
810	H	0.573702	0.254846	0.973193
811	C	0.627061	0.818372	0.311447
812	N	0.650443	0.853276	0.978605
813	C	0.685557	0.865785	0.978416
814	N	0.697084	0.842404	0.978452
815	C	0.674477	0.807291	0.977958
816	N	0.639572	0.795768	0.978174
817	C	0.709565	0.901814	0.981839
818	C	0.686482	0.783256	0.981021
819	C	0.591018	0.806333	0.981273
820	O	0.661995	0.748696	0.983911
821	O	0.580938	0.830797	0.984501
822	O	0.744118	0.911878	0.984842
823	C	0.864355	0.676048	0.3492
824	N	0.841061	0.641121	0.015852
825	C	0.805928	0.628507	0.016371
826	N	0.794294	0.651801	0.016141
827	C	0.816813	0.686933	0.016165
828	N	0.851739	0.698566	0.015669
829	C	0.781999	0.592436	0.013398
830	C	0.804682	0.710862	0.012952
831	C	0.900401	0.688177	0.012395
832	O	0.829085	0.74543	0.009754
833	O	0.910562	0.663767	0.009254
834	O	0.747407	0.582238	0.01054
835	C	0.733727	0.771101	0.323015
836	C	0.757134	0.769228	0.291887
837	C	0.767122	0.743274	0.298016
838	C	0.757271	0.722794	0.004371
839	C	0.733817	0.724631	0.035461
840	C	0.723816	0.750583	0.029338
841	N	0.781838	0.734398	0.263885
842	H	0.783808	0.743528	0.234234
843	H	0.783853	0.713449	0.265198
844	N	0.768472	0.790833	0.255578
845	H	0.760312	0.80702	0.248556
846	H	0.78808	0.793863	0.237732
847	N	0.722443	0.703	0.071745
848	H	0.730589	0.686807	0.078779
849	H	0.702787	0.699928	0.089522
850	N	0.709057	0.759421	0.06345
851	H	0.706947	0.780313	0.062173
852	H	0.707089	0.75026	0.09309
853	N	0.769865	0.700534	0.012008
854	H	0.753214	0.676573	0.020824
855	N	0.721268	0.793483	0.315468
856	H	0.738021	0.817454	0.306798
857	C	0.721731	0.961208	0.323817
858	C	0.723557	0.986407	0.292585
859	C	0.749483	0.522375	0.298601
860	C	0.770048	0.533094	0.004879
861	C	0.768277	0.50789	0.03606
862	C	0.742338	0.971917	0.030069
863	N	0.758269	0.545902	0.264428
864	H	0.748956	0.538861	0.234832
865	H	0.779086	0.568987	0.265627
866	N	0.701958	0.976028	0.256263
867	H	0.685849	0.951651	0.249264
868	H	0.698896	0.992528	0.238316
869	N	0.789943	0.518261	0.072311
870	H	0.806125	0.542636	0.079236
871	H	0.793027	0.501754	0.090209
872	N	0.733608	0.948395	0.064245
873	H	0.712731	0.92535	0.063021
874	H	0.742883	0.955486	0.093837
875	N	0.792345	0.567964	0.012339
876	H	0.816342	0.575289	0.021003
877	N	0.699309	0.926352	0.316446
878	H	0.675363	0.919127	0.307649
879	C	0.531604	0.759052	0.322813
880	C	0.506429	0.73586	0.291422
881	C	0.970455	0.725819	0.297433
882	C	0.959723	0.735497	0.003838
883	C	0.984893	0.75869	0.035228
884	C	0.520854	0.768704	0.029226
885	N	0.94694	0.711167	0.263216
886	H	0.954152	0.709296	0.233563
887	H	0.92391	0.709002	0.264533
888	N	0.516828	0.724778	0.254986
889	H	0.541214	0.733034	0.248068
890	H	0.500342	0.705293	0.236924
891	N	0.974491	0.769758	0.071667
892	H	0.950119	0.761533	0.078608
893	H	0.990995	0.789225	0.089753
894	N	0.544331	0.783191	0.063492
895	H	0.56742	0.785486	0.06228
896	H	0.537208	0.785269	0.093133
897	N	0.924861	0.722996	0.011219
898	H	0.91759	0.739651	0.020173
899	N	0.566472	0.771534	0.31546
900	H	0.573703	0.754846	0.306525
901	C	0.627061	0.818372	0.644779
902	N	0.650443	0.853276	0.31194
903	C	0.685557	0.865785	0.311749
904	N	0.697084	0.842404	0.311787
905	C	0.674477	0.807291	0.311293
906	N	0.639572	0.795768	0.311506
907	C	0.709565	0.901814	0.315174
908	C	0.686482	0.783256	0.314356
909	C	0.591018	0.806333	0.314606
910	O	0.661995	0.748696	0.317244
911	O	0.580938	0.830797	0.317836
912	O	0.744118	0.911878	0.318174
913	C	0.864355	0.676048	0.682531
914	N	0.841061	0.641121	0.349186
915	C	0.805928	0.628507	0.349703
916	N	0.794294	0.651801	0.349475
917	C	0.816813	0.686933	0.349498
918	N	0.851739	0.698566	0.349001
919	C	0.781999	0.592436	0.346731
920	C	0.804682	0.710862	0.346286
921	C	0.900401	0.688177	0.345726
922	O	0.829085	0.74543	0.343088
923	O	0.910562	0.663767	0.342588
924	O	0.747407	0.582238	0.343874
925	C	0.733727	0.771101	0.656349
926	C	0.757134	0.769228	0.625219
927	C	0.767122	0.743274	0.631347
928	C	0.757271	0.722794	0.337703
929	C	0.733817	0.724631	0.368793
930	C	0.723816	0.750583	0.362672
931	N	0.781838	0.734398	0.597218
932	H	0.783808	0.743528	0.567566
933	H	0.783853	0.713449	0.59853
934	N	0.768472	0.790833	0.588909
935	H	0.760312	0.80702	0.58189
936	H	0.78808	0.793863	0.571066
937	N	0.722443	0.703	0.405076
938	H	0.730589	0.686807	0.412112
939	H	0.702787	0.699928	0.422857
940	N	0.709057	0.759421	0.396781
941	H	0.706947	0.780313	0.395505
942	H	0.707089	0.75026	0.426423
943	N	0.769865	0.700534	0.345342
944	H	0.753214	0.676573	0.354158
945	N	0.721268	0.793483	0.6488
946	H	0.738021	0.817454	0.64013
947	C	0.721731	0.961208	0.657151
948	C	0.723557	0.986407	0.625919
949	C	0.749483	0.522375	0.631934
950	C	0.770048	0.533094	0.338213
951	C	0.768277	0.50789	0.369393
952	C	0.742338	0.971917	0.363401
953	N	0.758269	0.545902	0.597762
954	H	0.748956	0.538861	0.568166
955	H	0.779086	0.568987	0.598961
956	N	0.701958	0.976028	0.589595
957	H	0.685849	0.951651	0.582596
958	H	0.698896	0.992528	0.571649
959	N	0.789943	0.518261	0.405643
960	H	0.806125	0.542636	0.41257
961	H	0.793027	0.501754	0.423543
962	N	0.733608	0.948395	0.397576
963	H	0.712731	0.92535	0.396353
964	H	0.742883	0.955486	0.427172
965	N	0.792345	0.567964	0.345673
966	H	0.816342	0.575289	0.354337
967	N	0.699309	0.926352	0.649777
968	H	0.675363	0.919127	0.640981
969	C	0.531604	0.759052	0.656147
970	C	0.506429	0.73586	0.624755
971	C	0.970455	0.725819	0.630767
972	C	0.959723	0.735497	0.337173
973	C	0.984893	0.75869	0.368561
974	C	0.520854	0.768704	0.362559
975	N	0.94694	0.711167	0.596549
976	H	0.954152	0.709296	0.566897
977	H	0.92391	0.709002	0.597864
978	N	0.516828	0.724778	0.588319
979	H	0.541214	0.733034	0.581403
980	H	0.500342	0.705293	0.570257
981	N	0.974491	0.769758	0.405
982	H	0.950119	0.761533	0.41194
983	H	0.990995	0.789225	0.423085
984	N	0.544331	0.783191	0.396824
985	H	0.56742	0.785486	0.395614
986	H	0.537208	0.785269	0.426466
987	N	0.924861	0.722996	0.344553
988	H	0.91759	0.739651	0.353508
989	N	0.566472	0.771534	0.648793
990	H	0.573703	0.754846	0.639858
991	C	0.627061	0.818372	0.978114
992	N	0.650443	0.853276	0.645273
993	C	0.685557	0.865785	0.645081
994	N	0.697084	0.842404	0.645121
995	C	0.674477	0.807291	0.644627
996	N	0.639572	0.795768	0.644839
997	C	0.709565	0.901814	0.648508
998	C	0.686482	0.783256	0.647689
999	C	0.591018	0.806333	0.647941
1000	O	0.661995	0.748696	0.650576
1001	O	0.580938	0.830797	0.651169
1002	O	0.744118	0.911878	0.651507
1003	C	0.864355	0.676048	0.015866
1004	N	0.841061	0.641121	0.682518
1005	C	0.805928	0.628507	0.683038
1006	N	0.794294	0.651801	0.682806
1007	C	0.816813	0.686933	0.682829
1008	N	0.851739	0.698566	0.682336
1009	C	0.781999	0.592436	0.680065
1010	C	0.804682	0.710862	0.679618
1011	C	0.900401	0.688177	0.679061
1012	O	0.829085	0.74543	0.67642
1013	O	0.910562	0.663767	0.675919
1014	O	0.747407	0.582238	0.677205
1015	C	0.733727	0.771101	0.989681
1016	C	0.757134	0.769228	0.958554
1017	C	0.767122	0.743274	0.964682
1018	C	0.757271	0.722794	0.671038
1019	C	0.733817	0.724631	0.702128
1020	C	0.723816	0.750583	0.696003
1021	N	0.781838	0.734398	0.930553
1022	H	0.783808	0.743528	0.900901
1023	H	0.783853	0.713449	0.931865
1024	N	0.768472	0.790833	0.922244
1025	H	0.760312	0.80702	0.915221
1026	H	0.78808	0.793863	0.904397
1027	N	0.722443	0.703	0.738411
1028	H	0.730589	0.686807	0.745444
1029	H	0.702787	0.699928	0.756188
1030	N	0.709057	0.759421	0.730116
1031	H	0.706947	0.780313	0.72884
1032	H	0.707089	0.75026	0.759758
1033	N	0.769865	0.700534	0.678673
1034	H	0.753214	0.676573	0.687489
1035	N	0.721268	0.793483	0.982134
1036	H	0.738021	0.817454	0.973464
1037	C	0.721731	0.961208	0.990483
1038	C	0.723557	0.986407	0.95925
1039	C	0.749483	0.522375	0.965269
1040	C	0.770048	0.533094	0.671545
1041	C	0.768277	0.50789	0.702724
1042	C	0.742338	0.971917	0.696736
1043	N	0.758269	0.545902	0.931093
1044	H	0.748956	0.538861	0.901498
1045	H	0.779086	0.568987	0.932293
1046	N	0.701958	0.976028	0.92293
1047	H	0.685849	0.951651	0.915931
1048	H	0.698896	0.992528	0.904981
1049	N	0.789943	0.518261	0.738978
1050	H	0.806125	0.542636	0.745901
1051	H	0.793027	0.501754	0.756874
1052	N	0.733608	0.948395	0.730911
1053	H	0.712731	0.92535	0.729688
1054	H	0.742883	0.955486	0.760503
1055	N	0.792345	0.567964	0.679005
1056	H	0.816342	0.575289	0.687668
1057	N	0.699309	0.926352	0.983112
1058	H	0.675363	0.919127	0.974316
1059	C	0.531604	0.759052	0.989478
1060	C	0.506429	0.73586	0.958087
1061	C	0.970455	0.725819	0.964099
1062	C	0.959723	0.735497	0.670504
1063	C	0.984893	0.75869	0.701892
1064	C	0.520854	0.768704	0.695894
1065	N	0.94694	0.711167	0.929883
1066	H	0.954152	0.709296	0.900228
1067	H	0.92391	0.709002	0.931199
1068	N	0.516828	0.724778	0.921651
1069	H	0.541214	0.733034	0.914734
1070	H	0.500342	0.705293	0.903589
1071	N	0.974491	0.769758	0.738332
1072	H	0.950119	0.761533	0.745275
1073	H	0.990995	0.789225	0.75642
1074	N	0.544331	0.783191	0.730159
1075	H	0.56742	0.785486	0.728946
1076	H	0.537208	0.785269	0.759801
1077	N	0.924861	0.722996	0.677885
1078	H	0.91759	0.739651	0.686839
1079	N	0.566472	0.771534	0.982128
1080	H	0.573703	0.754846	0.973193
