data_C576H360N72_2018-02-15_10:38:36
#******************************************
#
# CIF file created by Zeo++
# Zeo++ is an open source package to
# analyze microporous materials
#
#*******************************************

_cell_length_a		44.3006   
_cell_length_b		44.3005   
_cell_length_c		29.8844   
_cell_angle_alpha		90   
_cell_angle_beta		90   
_cell_angle_gamma		120   

_symmetry_space_group_name_H-M		'P1'
_symmetry_Int_Tables_number		1
_symmetry_cell_setting		Monoclinic

loop_
_symmetry_equiv_pos_as_xyz
'+x,+y,+z'

loop_
_atom_site_label
_atom_site_type_symbol
_atom_site_fract_x
_atom_site_fract_y
_atom_site_fract_z
1	C	0.021454	0.256325	0.339328
2	C	0.041838	0.241377	0.326001
3	C	0.039552	0.29168	0.020683
4	H	0.030438	0.21577	0.317008
5	C	0.019647	0.30863	0.036223
6	H	0.013827	0.319906	0.00727
7	H	0.034902	0.329693	0.059919
8	C	0.021454	0.256325	0.672663
9	C	0.041838	0.241377	0.659334
10	C	0.039552	0.29168	0.354014
11	H	0.030438	0.21577	0.65034
12	C	0.019647	0.30863	0.369554
13	H	0.013827	0.319906	0.340603
14	H	0.034902	0.329693	0.393252
15	C	0.021454	0.256325	0.005996
16	C	0.041838	0.241377	0.992666
17	C	0.039552	0.29168	0.687349
18	H	0.030438	0.21577	0.983675
19	C	0.019647	0.30863	0.702889
20	H	0.013827	0.319906	0.673934
21	H	0.034902	0.329693	0.726584
22	C	0.021454	0.756325	0.339328
23	C	0.041837	0.741377	0.326001
24	C	0.039551	0.79168	0.020683
25	H	0.030438	0.715771	0.317008
26	C	0.019648	0.80863	0.036223
27	H	0.013828	0.819906	0.00727
28	H	0.034902	0.829694	0.059919
29	C	0.021454	0.756325	0.672663
30	C	0.041837	0.741377	0.659334
31	C	0.039551	0.79168	0.354014
32	H	0.030438	0.715771	0.65034
33	C	0.019648	0.80863	0.369554
34	H	0.013828	0.819906	0.340603
35	H	0.034902	0.829694	0.393252
36	C	0.021454	0.756325	0.005996
37	C	0.041837	0.741377	0.992666
38	C	0.039551	0.79168	0.687349
39	H	0.030438	0.715771	0.983675
40	C	0.019648	0.80863	0.702889
41	H	0.013828	0.819906	0.673934
42	H	0.034902	0.829694	0.726584
43	C	0.078475	0.260808	0.325999
44	C	0.076385	0.311229	0.019436
45	C	0.078475	0.260808	0.659331
46	C	0.076385	0.311229	0.35277
47	C	0.078475	0.260808	0.992666
48	C	0.076385	0.311229	0.686101
49	C	0.078476	0.760809	0.325999
50	C	0.076386	0.811229	0.019436
51	C	0.078476	0.760809	0.659331
52	C	0.076386	0.811229	0.35277
53	C	0.078476	0.760809	0.992666
54	C	0.076386	0.811229	0.686101
55	H	0.088637	0.336681	0.029693
56	H	0.088637	0.336681	0.363026
57	H	0.088637	0.336681	0.696361
58	H	0.088639	0.836682	0.029693
59	H	0.088639	0.836682	0.363026
60	H	0.088639	0.836682	0.696361
61	C	0.186295	0.371176	0.0051
62	N	0.150911	0.351546	0.005123
63	C	0.133662	0.316087	0.0051
64	N	0.153292	0.300333	0.005122
65	C	0.18875	0.318543	0.005099
66	N	0.204505	0.353926	0.005122
67	C	0.3171	0.13287	0.004752
68	N	0.352538	0.149815	0.004795
69	C	0.371968	0.185199	0.00475
70	N	0.355023	0.203692	0.004796
71	C	0.31964	0.187738	0.004753
72	N	0.301145	0.1523	0.004798
73	C	0.302491	0.207514	0.338618
74	C	0.315837	0.23897	0.31439
75	C	0.298455	0.258236	0.314336
76	C	0.267677	0.247564	0.339716
77	C	0.254381	0.215929	0.031118
78	C	0.271533	0.196253	0.030076
79	H	0.261798	0.17389	0.048666
80	C	0.248512	0.266097	0.339328
81	C	0.263463	0.301431	0.326006
82	C	0.244031	0.318636	0.326003
83	C	0.208575	0.301238	0.338853
84	C	0.193608	0.266123	0.019428
85	C	0.213157	0.248839	0.020676
86	H	0.28907	0.315639	0.31702
87	H	0.256133	0.344097	0.315832
88	H	0.168154	0.252921	0.029681
89	H	0.337734	0.247537	0.29513
90	C	0.196204	0.211982	0.036213
91	C	0.222791	0.204161	0.059377
92	H	0.184933	0.194886	0.00725
93	H	0.17514	0.20617	0.059898
94	H	0.210061	0.176247	0.066607
95	H	0.230799	0.218156	0.091227
96	H	0.308404	0.279807	0.294403
97	C	0.297324	0.095946	0.338618
98	C	0.265867	0.077835	0.314391
99	C	0.246602	0.041187	0.314337
100	C	0.257273	0.021081	0.339716
101	C	0.28891	0.039421	0.031118
102	C	0.308585	0.076248	0.030074
103	H	0.330949	0.088877	0.048664
104	C	0.238741	0.483384	0.339331
105	C	0.203408	0.463001	0.326008
106	C	0.186202	0.426364	0.326006
107	C	0.203601	0.408306	0.338853
108	C	0.238716	0.428454	0.019429
109	C	0.255999	0.465287	0.020676
110	H	0.1892	0.474402	0.317022
111	H	0.160742	0.413005	0.315835
112	H	0.251917	0.416201	0.029681
113	H	0.2573	0.091166	0.295131
114	C	0.292856	0.48519	0.036211
115	C	0.300675	0.019597	0.059377
116	H	0.309951	0.491016	0.007251
117	H	0.298669	0.469937	0.059899
118	H	0.328593	0.034783	0.066607
119	H	0.286682	0.013611	0.091224
120	H	0.22503	0.029565	0.294405
121	C	0.408892	0.202348	0.338612
122	C	0.427003	0.189013	0.314365
123	C	0.463651	0.206386	0.314327
124	C	0.483757	0.237162	0.339709
125	C	0.465417	0.250456	0.031116
126	C	0.428589	0.233304	0.030075
127	H	0.415961	0.243035	0.048672
128	C	0.096531	0.296262	0.338853
129	H	0.091833	0.248708	0.315823
130	H	0.413671	0.167103	0.295127
131	C	0.485239	0.282041	0.059384
132	H	0.470053	0.294774	0.066619
133	H	0.491222	0.274028	0.091226
134	H	0.475273	0.196435	0.294398
135	C	0.186295	0.371176	0.338434
136	N	0.150911	0.351546	0.338458
137	C	0.133662	0.316087	0.338434
138	N	0.153292	0.300333	0.338454
139	C	0.18875	0.318543	0.338431
140	N	0.204505	0.353926	0.338454
141	C	0.3171	0.13287	0.338086
142	N	0.352538	0.149815	0.338127
143	C	0.371968	0.185199	0.338083
144	N	0.355023	0.203692	0.33813
145	C	0.31964	0.187738	0.338086
146	N	0.301145	0.1523	0.33813
147	C	0.302491	0.207514	0.67195
148	C	0.315837	0.23897	0.647723
149	C	0.298455	0.258236	0.64767
150	C	0.267677	0.247564	0.673047
151	C	0.254381	0.215929	0.364451
152	C	0.271533	0.196253	0.363407
153	H	0.261798	0.17389	0.381999
154	C	0.248512	0.266097	0.672663
155	C	0.263463	0.301431	0.659341
156	C	0.244031	0.318636	0.659338
157	C	0.208575	0.301238	0.672184
158	C	0.193608	0.266123	0.352763
159	C	0.213157	0.248839	0.354008
160	H	0.28907	0.315639	0.650353
161	H	0.256133	0.344097	0.649165
162	H	0.168154	0.252921	0.363012
163	H	0.337734	0.247537	0.628462
164	C	0.196204	0.211982	0.369544
165	C	0.222791	0.204161	0.39271
166	H	0.184933	0.194886	0.340583
167	H	0.17514	0.20617	0.393232
168	H	0.210061	0.176247	0.399941
169	H	0.230799	0.218156	0.42456
170	H	0.308404	0.279807	0.627736
171	C	0.297324	0.095946	0.67195
172	C	0.265867	0.077835	0.647723
173	C	0.246602	0.041187	0.64767
174	C	0.257273	0.021081	0.673047
175	C	0.28891	0.039421	0.364451
176	C	0.308585	0.076248	0.363407
177	H	0.330949	0.088877	0.381996
178	C	0.238741	0.483384	0.672663
179	C	0.203408	0.463001	0.659341
180	C	0.186202	0.426364	0.659338
181	C	0.203601	0.408306	0.672187
182	C	0.238716	0.428454	0.352763
183	C	0.255999	0.465287	0.354011
184	H	0.1892	0.474402	0.650353
185	H	0.160742	0.413005	0.649169
186	H	0.251917	0.416201	0.363016
187	H	0.2573	0.091166	0.628466
188	C	0.292856	0.48519	0.369544
189	C	0.300675	0.019597	0.39271
190	H	0.309951	0.491016	0.340583
191	H	0.298669	0.469937	0.393232
192	H	0.328593	0.034783	0.399941
193	H	0.286682	0.013611	0.424556
194	H	0.22503	0.029565	0.627739
195	C	0.408892	0.202348	0.671946
196	C	0.427003	0.189013	0.647696
197	C	0.463651	0.206386	0.647659
198	C	0.483757	0.237162	0.673044
199	C	0.465417	0.250456	0.364448
200	C	0.428589	0.233304	0.363407
201	H	0.415961	0.243035	0.382006
202	C	0.096531	0.296262	0.672187
203	H	0.091833	0.248708	0.649155
204	H	0.413671	0.167103	0.628459
205	C	0.485239	0.282041	0.392717
206	H	0.470053	0.294774	0.399951
207	H	0.491222	0.274028	0.42456
208	H	0.475273	0.196435	0.627729
209	C	0.186295	0.371176	0.671766
210	N	0.150911	0.351546	0.671789
211	C	0.133662	0.316087	0.671766
212	N	0.153292	0.300333	0.671789
213	C	0.18875	0.318543	0.671766
214	N	0.204505	0.353926	0.671789
215	C	0.3171	0.13287	0.671418
216	N	0.352538	0.149815	0.671461
217	C	0.371968	0.185199	0.671418
218	N	0.355023	0.203692	0.671461
219	C	0.31964	0.187738	0.671418
220	N	0.301145	0.1523	0.671465
221	C	0.302491	0.207514	0.005285
222	C	0.315837	0.23897	0.981058
223	C	0.298455	0.258236	0.981001
224	C	0.267677	0.247564	0.006382
225	C	0.254381	0.215929	0.697783
226	C	0.271533	0.196253	0.696742
227	H	0.261798	0.17389	0.71533
228	C	0.248512	0.266097	0.005996
229	C	0.263463	0.301431	0.992673
230	C	0.244031	0.318636	0.992669
231	C	0.208575	0.301238	0.005518
232	C	0.193608	0.266123	0.686094
233	C	0.213157	0.248839	0.687342
234	H	0.28907	0.315639	0.983685
235	H	0.256133	0.344097	0.9825
236	H	0.168154	0.252921	0.696347
237	H	0.337734	0.247537	0.961797
238	C	0.196204	0.211982	0.702879
239	C	0.222791	0.204161	0.726042
240	H	0.184933	0.194886	0.673917
241	H	0.17514	0.20617	0.726564
242	H	0.210061	0.176247	0.733273
243	H	0.230799	0.218156	0.757894
244	H	0.308404	0.279807	0.961071
245	C	0.297324	0.095946	0.005285
246	C	0.265867	0.077835	0.981058
247	C	0.246602	0.041187	0.981004
248	C	0.257273	0.021081	0.006382
249	C	0.28891	0.039421	0.697783
250	C	0.308585	0.076248	0.696739
251	H	0.330949	0.088877	0.71533
252	C	0.238741	0.483384	0.005997
253	C	0.203408	0.463001	0.992676
254	C	0.186202	0.426364	0.992673
255	C	0.203601	0.408306	0.00552
256	C	0.238716	0.428454	0.686094
257	C	0.255999	0.465287	0.687342
258	H	0.1892	0.474402	0.983688
259	H	0.160742	0.413005	0.9825
260	H	0.251917	0.416201	0.696347
261	H	0.2573	0.091166	0.961797
262	C	0.292856	0.48519	0.702876
263	C	0.300675	0.019597	0.726042
264	H	0.309951	0.491016	0.673917
265	H	0.298669	0.469937	0.726564
266	H	0.328593	0.034783	0.733273
267	H	0.286682	0.013611	0.757891
268	H	0.22503	0.029565	0.961071
269	C	0.408892	0.202348	0.005279
270	C	0.427003	0.189013	0.981031
271	C	0.463651	0.206386	0.980994
272	C	0.483757	0.237162	0.006377
273	C	0.465417	0.250456	0.697783
274	C	0.428589	0.233304	0.696742
275	H	0.415961	0.243035	0.715337
276	C	0.096531	0.296262	0.00552
277	H	0.091833	0.248708	0.98249
278	H	0.413671	0.167103	0.961794
279	C	0.485239	0.282041	0.726052
280	H	0.470053	0.294774	0.733286
281	H	0.491222	0.274028	0.757891
282	H	0.475273	0.196435	0.961064
283	C	0.186296	0.871176	0.0051
284	N	0.15091	0.851547	0.005123
285	C	0.133664	0.816088	0.0051
286	N	0.153292	0.800334	0.005122
287	C	0.18875	0.818543	0.005099
288	N	0.204506	0.853929	0.005122
289	C	0.3171	0.63287	0.004752
290	N	0.352539	0.649815	0.004795
291	C	0.371968	0.685199	0.00475
292	N	0.355023	0.703692	0.004796
293	C	0.31964	0.68774	0.004753
294	N	0.301145	0.652299	0.004798
295	C	0.302491	0.707513	0.338618
296	C	0.315838	0.738971	0.31439
297	C	0.298455	0.758236	0.314336
298	C	0.267677	0.747565	0.339716
299	C	0.254382	0.71593	0.031118
300	C	0.271533	0.696253	0.030075
301	H	0.261799	0.673892	0.048666
302	C	0.248513	0.766097	0.339328
303	C	0.263463	0.801431	0.326006
304	C	0.244031	0.818637	0.326003
305	C	0.208576	0.801238	0.338853
306	C	0.193608	0.766123	0.019428
307	C	0.213158	0.748839	0.020676
308	H	0.289071	0.815639	0.31702
309	H	0.256134	0.844097	0.315832
310	H	0.168154	0.752921	0.029681
311	H	0.337734	0.747536	0.29513
312	C	0.196205	0.711983	0.036213
313	C	0.222791	0.704161	0.059377
314	H	0.184934	0.694887	0.00725
315	H	0.175141	0.706171	0.059898
316	H	0.210061	0.676248	0.066607
317	H	0.2308	0.718158	0.091227
318	H	0.308405	0.779808	0.294403
319	C	0.297325	0.595946	0.338618
320	C	0.265868	0.577836	0.314391
321	C	0.246602	0.541189	0.314337
322	C	0.257274	0.521082	0.339716
323	C	0.28891	0.539421	0.031118
324	C	0.308586	0.576249	0.030074
325	H	0.33095	0.588877	0.048664
326	C	0.238741	0.983384	0.339331
327	C	0.203407	0.963001	0.326008
328	C	0.186202	0.926364	0.326006
329	C	0.203601	0.908306	0.338853
330	C	0.238716	0.928455	0.019429
331	C	0.255999	0.965287	0.020676
332	H	0.189201	0.974402	0.317022
333	H	0.160742	0.913006	0.315835
334	H	0.251918	0.916201	0.029681
335	H	0.2573	0.591166	0.295131
336	C	0.292858	0.985193	0.036211
337	C	0.300677	0.519599	0.059377
338	H	0.309951	0.991016	0.007251
339	H	0.298669	0.969937	0.059899
340	H	0.328594	0.534784	0.066607
341	H	0.286684	0.513612	0.091224
342	H	0.22503	0.529566	0.294405
343	C	0.408892	0.70235	0.338612
344	C	0.427004	0.689015	0.314365
345	C	0.463651	0.706387	0.314327
346	C	0.483757	0.737162	0.339709
347	C	0.465416	0.750456	0.031116
348	C	0.42859	0.733305	0.030075
349	H	0.41596	0.743035	0.048672
350	C	0.096533	0.796262	0.338853
351	H	0.091835	0.748709	0.315823
352	H	0.413673	0.667104	0.295127
353	C	0.48524	0.782041	0.059384
354	H	0.470053	0.794774	0.066619
355	H	0.491223	0.774029	0.091226
356	H	0.475273	0.696435	0.294398
357	C	0.186296	0.871176	0.338434
358	N	0.15091	0.851547	0.338458
359	C	0.133664	0.816088	0.338434
360	N	0.153292	0.800334	0.338454
361	C	0.18875	0.818543	0.338431
362	N	0.204506	0.853929	0.338454
363	C	0.3171	0.63287	0.338086
364	N	0.352539	0.649815	0.338127
365	C	0.371968	0.685199	0.338083
366	N	0.355023	0.703692	0.33813
367	C	0.31964	0.68774	0.338086
368	N	0.301145	0.652299	0.33813
369	C	0.302491	0.707513	0.67195
370	C	0.315838	0.738971	0.647723
371	C	0.298455	0.758236	0.64767
372	C	0.267677	0.747565	0.673047
373	C	0.254382	0.71593	0.364451
374	C	0.271533	0.696253	0.363407
375	H	0.261799	0.673892	0.381999
376	C	0.248513	0.766097	0.672663
377	C	0.263463	0.801431	0.659341
378	C	0.244031	0.818637	0.659338
379	C	0.208576	0.801238	0.672184
380	C	0.193608	0.766123	0.352763
381	C	0.213158	0.748839	0.354008
382	H	0.289071	0.815639	0.650353
383	H	0.256134	0.844097	0.649165
384	H	0.168154	0.752921	0.363012
385	H	0.337734	0.747536	0.628462
386	C	0.196205	0.711983	0.369544
387	C	0.222791	0.704161	0.39271
388	H	0.184934	0.694887	0.340583
389	H	0.175141	0.706171	0.393232
390	H	0.210061	0.676248	0.399941
391	H	0.2308	0.718158	0.42456
392	H	0.308405	0.779808	0.627736
393	C	0.297325	0.595946	0.67195
394	C	0.265868	0.577836	0.647723
395	C	0.246602	0.541189	0.64767
396	C	0.257274	0.521082	0.673047
397	C	0.28891	0.539421	0.364451
398	C	0.308586	0.576249	0.363407
399	H	0.33095	0.588877	0.381996
400	C	0.238741	0.983384	0.672663
401	C	0.203407	0.963001	0.659341
402	C	0.186202	0.926364	0.659338
403	C	0.203601	0.908306	0.672187
404	C	0.238716	0.928455	0.352763
405	C	0.255999	0.965287	0.354011
406	H	0.189201	0.974402	0.650353
407	H	0.160742	0.913006	0.649169
408	H	0.251918	0.916201	0.363016
409	H	0.2573	0.591166	0.628466
410	C	0.292858	0.985193	0.369544
411	C	0.300677	0.519599	0.39271
412	H	0.309951	0.991016	0.340583
413	H	0.298669	0.969937	0.393232
414	H	0.328594	0.534784	0.399941
415	H	0.286684	0.513612	0.424556
416	H	0.22503	0.529566	0.627739
417	C	0.408892	0.70235	0.671946
418	C	0.427004	0.689015	0.647696
419	C	0.463651	0.706387	0.647659
420	C	0.483757	0.737162	0.673044
421	C	0.465416	0.750456	0.364448
422	C	0.42859	0.733305	0.363407
423	H	0.41596	0.743035	0.382006
424	C	0.096533	0.796262	0.672187
425	H	0.091835	0.748709	0.649155
426	H	0.413673	0.667104	0.628459
427	C	0.48524	0.782041	0.392717
428	H	0.470053	0.794774	0.399951
429	H	0.491223	0.774029	0.42456
430	H	0.475273	0.696435	0.627729
431	C	0.186296	0.871176	0.671766
432	N	0.15091	0.851547	0.671789
433	C	0.133664	0.816088	0.671766
434	N	0.153292	0.800334	0.671789
435	C	0.18875	0.818543	0.671766
436	N	0.204506	0.853929	0.671789
437	C	0.3171	0.63287	0.671418
438	N	0.352539	0.649815	0.671461
439	C	0.371968	0.685199	0.671418
440	N	0.355023	0.703692	0.671461
441	C	0.31964	0.68774	0.671418
442	N	0.301145	0.652299	0.671465
443	C	0.302491	0.707513	0.005285
444	C	0.315838	0.738971	0.981058
445	C	0.298455	0.758236	0.981001
446	C	0.267677	0.747565	0.006382
447	C	0.254382	0.71593	0.697783
448	C	0.271533	0.696253	0.696742
449	H	0.261799	0.673892	0.71533
450	C	0.248513	0.766097	0.005996
451	C	0.263463	0.801431	0.992673
452	C	0.244031	0.818637	0.992669
453	C	0.208576	0.801238	0.005518
454	C	0.193608	0.766123	0.686094
455	C	0.213158	0.748839	0.687342
456	H	0.289071	0.815639	0.983685
457	H	0.256134	0.844097	0.9825
458	H	0.168154	0.752921	0.696347
459	H	0.337734	0.747536	0.961797
460	C	0.196205	0.711983	0.702879
461	C	0.222791	0.704161	0.726042
462	H	0.184934	0.694887	0.673917
463	H	0.175141	0.706171	0.726564
464	H	0.210061	0.676248	0.733273
465	H	0.2308	0.718158	0.757894
466	H	0.308405	0.779808	0.961071
467	C	0.297325	0.595946	0.005285
468	C	0.265868	0.577836	0.981058
469	C	0.246602	0.541189	0.981004
470	C	0.257274	0.521082	0.006382
471	C	0.28891	0.539421	0.697783
472	C	0.308586	0.576249	0.696739
473	H	0.33095	0.588877	0.71533
474	C	0.238741	0.983384	0.005997
475	C	0.203407	0.963001	0.992676
476	C	0.186202	0.926364	0.992673
477	C	0.203601	0.908306	0.00552
478	C	0.238716	0.928455	0.686094
479	C	0.255999	0.965287	0.687342
480	H	0.189201	0.974402	0.983688
481	H	0.160742	0.913006	0.9825
482	H	0.251918	0.916201	0.696347
483	H	0.2573	0.591166	0.961797
484	C	0.292858	0.985193	0.702876
485	C	0.300677	0.519599	0.726042
486	H	0.309951	0.991016	0.673917
487	H	0.298669	0.969937	0.726564
488	H	0.328594	0.534784	0.733273
489	H	0.286684	0.513612	0.757891
490	H	0.22503	0.529566	0.961071
491	C	0.408892	0.70235	0.005279
492	C	0.427004	0.689015	0.981031
493	C	0.463651	0.706387	0.980994
494	C	0.483757	0.737162	0.006377
495	C	0.465416	0.750456	0.697783
496	C	0.42859	0.733305	0.696742
497	H	0.41596	0.743035	0.715337
498	C	0.096533	0.796262	0.00552
499	H	0.091835	0.748709	0.98249
500	H	0.413673	0.667104	0.961794
501	C	0.48524	0.782041	0.726052
502	H	0.470053	0.794774	0.733286
503	H	0.491223	0.774029	0.757891
504	H	0.475273	0.696435	0.961064
505	C	0.686295	0.371176	0.0051
506	N	0.650911	0.351546	0.005123
507	C	0.633662	0.316087	0.0051
508	N	0.653291	0.300333	0.005122
509	C	0.688749	0.318543	0.005099
510	N	0.704504	0.353926	0.005122
511	C	0.8171	0.13287	0.004752
512	N	0.852538	0.149815	0.004795
513	C	0.871968	0.185199	0.00475
514	N	0.855023	0.203692	0.004796
515	C	0.819638	0.187738	0.004753
516	N	0.801144	0.1523	0.004798
517	C	0.80249	0.207514	0.338618
518	C	0.815837	0.23897	0.31439
519	C	0.798454	0.258236	0.314336
520	C	0.767676	0.247564	0.339716
521	C	0.75438	0.215929	0.031118
522	C	0.771533	0.196253	0.030076
523	H	0.761798	0.17389	0.048666
524	C	0.748512	0.266097	0.339328
525	C	0.763461	0.301431	0.326006
526	C	0.74403	0.318636	0.326003
527	C	0.708575	0.301238	0.338853
528	C	0.693607	0.266123	0.019428
529	C	0.713156	0.248839	0.020676
530	H	0.78907	0.315639	0.31702
531	H	0.756133	0.344097	0.315832
532	H	0.668153	0.252921	0.029681
533	H	0.837734	0.247537	0.29513
534	C	0.696204	0.211982	0.036213
535	C	0.72279	0.204161	0.059377
536	H	0.684932	0.194886	0.00725
537	H	0.675141	0.20617	0.059898
538	H	0.710061	0.176247	0.066607
539	H	0.730799	0.218156	0.091227
540	H	0.808405	0.279807	0.294403
541	C	0.797324	0.095946	0.338618
542	C	0.765867	0.077835	0.314391
543	C	0.746602	0.041187	0.314337
544	C	0.757273	0.021081	0.339716
545	C	0.788908	0.039421	0.031118
546	C	0.808585	0.076248	0.030074
547	H	0.830949	0.088877	0.048664
548	C	0.738742	0.483384	0.339331
549	C	0.703408	0.463001	0.326008
550	C	0.686203	0.426364	0.326006
551	C	0.7036	0.408306	0.338853
552	C	0.738714	0.428454	0.019429
553	C	0.756	0.465287	0.020676
554	H	0.689199	0.474402	0.317022
555	H	0.660743	0.413005	0.315835
556	H	0.751917	0.416201	0.029681
557	H	0.7573	0.091166	0.295131
558	C	0.792856	0.48519	0.036211
559	C	0.800675	0.019597	0.059377
560	H	0.809949	0.491016	0.007251
561	H	0.798667	0.469937	0.059899
562	H	0.828593	0.034783	0.066607
563	H	0.786682	0.013611	0.091224
564	H	0.725028	0.029565	0.294405
565	C	0.90889	0.202348	0.338612
566	C	0.927003	0.189013	0.314365
567	C	0.963651	0.206386	0.314327
568	C	0.983757	0.237162	0.339709
569	C	0.965415	0.250456	0.031116
570	C	0.928589	0.233304	0.030075
571	H	0.915961	0.243035	0.048672
572	C	0.521453	0.256325	0.339328
573	C	0.541836	0.241377	0.326001
574	C	0.578475	0.260808	0.325999
575	C	0.596531	0.296262	0.338853
576	C	0.576385	0.311229	0.019436
577	C	0.539552	0.29168	0.020683
578	H	0.530437	0.21577	0.317008
579	H	0.591833	0.248708	0.315823
580	H	0.588637	0.336681	0.029693
581	H	0.913671	0.167103	0.295127
582	C	0.519646	0.30863	0.036223
583	C	0.985239	0.282041	0.059384
584	H	0.513826	0.319906	0.00727
585	H	0.5349	0.329693	0.059919
586	H	0.970053	0.294774	0.066619
587	H	0.991222	0.274028	0.091226
588	H	0.975271	0.196435	0.294398
589	C	0.686295	0.371176	0.338434
590	N	0.650911	0.351546	0.338458
591	C	0.633662	0.316087	0.338434
592	N	0.653291	0.300333	0.338454
593	C	0.688749	0.318543	0.338431
594	N	0.704504	0.353926	0.338454
595	C	0.8171	0.13287	0.338086
596	N	0.852538	0.149815	0.338127
597	C	0.871968	0.185199	0.338083
598	N	0.855023	0.203692	0.33813
599	C	0.819638	0.187738	0.338086
600	N	0.801144	0.1523	0.33813
601	C	0.80249	0.207514	0.67195
602	C	0.815837	0.23897	0.647723
603	C	0.798454	0.258236	0.64767
604	C	0.767676	0.247564	0.673047
605	C	0.75438	0.215929	0.364451
606	C	0.771533	0.196253	0.363407
607	H	0.761798	0.17389	0.381999
608	C	0.748512	0.266097	0.672663
609	C	0.763461	0.301431	0.659341
610	C	0.74403	0.318636	0.659338
611	C	0.708575	0.301238	0.672184
612	C	0.693607	0.266123	0.352763
613	C	0.713156	0.248839	0.354008
614	H	0.78907	0.315639	0.650353
615	H	0.756133	0.344097	0.649165
616	H	0.668153	0.252921	0.363012
617	H	0.837734	0.247537	0.628462
618	C	0.696204	0.211982	0.369544
619	C	0.72279	0.204161	0.39271
620	H	0.684932	0.194886	0.340583
621	H	0.675141	0.20617	0.393232
622	H	0.710061	0.176247	0.399941
623	H	0.730799	0.218156	0.42456
624	H	0.808405	0.279807	0.627736
625	C	0.797324	0.095946	0.67195
626	C	0.765867	0.077835	0.647723
627	C	0.746602	0.041187	0.64767
628	C	0.757273	0.021081	0.673047
629	C	0.788908	0.039421	0.364451
630	C	0.808585	0.076248	0.363407
631	H	0.830949	0.088877	0.381996
632	C	0.738742	0.483384	0.672663
633	C	0.703408	0.463001	0.659341
634	C	0.686203	0.426364	0.659338
635	C	0.7036	0.408306	0.672187
636	C	0.738714	0.428454	0.352763
637	C	0.756	0.465287	0.354011
638	H	0.689199	0.474402	0.650353
639	H	0.660743	0.413005	0.649169
640	H	0.751917	0.416201	0.363016
641	H	0.7573	0.091166	0.628466
642	C	0.792856	0.48519	0.369544
643	C	0.800675	0.019597	0.39271
644	H	0.809949	0.491016	0.340583
645	H	0.798667	0.469937	0.393232
646	H	0.828593	0.034783	0.399941
647	H	0.786682	0.013611	0.424556
648	H	0.725028	0.029565	0.627739
649	C	0.90889	0.202348	0.671946
650	C	0.927003	0.189013	0.647696
651	C	0.963651	0.206386	0.647659
652	C	0.983757	0.237162	0.673044
653	C	0.965415	0.250456	0.364448
654	C	0.928589	0.233304	0.363407
655	H	0.915961	0.243035	0.382006
656	C	0.521453	0.256325	0.672663
657	C	0.541836	0.241377	0.659334
658	C	0.578475	0.260808	0.659331
659	C	0.596531	0.296262	0.672187
660	C	0.576385	0.311229	0.35277
661	C	0.539552	0.29168	0.354014
662	H	0.530437	0.21577	0.65034
663	H	0.591833	0.248708	0.649155
664	H	0.588637	0.336681	0.363026
665	H	0.913671	0.167103	0.628459
666	C	0.519646	0.30863	0.369554
667	C	0.985239	0.282041	0.392717
668	H	0.513826	0.319906	0.340603
669	H	0.5349	0.329693	0.393252
670	H	0.970053	0.294774	0.399951
671	H	0.991222	0.274028	0.42456
672	H	0.975271	0.196435	0.627729
673	C	0.686295	0.371176	0.671766
674	N	0.650911	0.351546	0.671789
675	C	0.633662	0.316087	0.671766
676	N	0.653291	0.300333	0.671789
677	C	0.688749	0.318543	0.671766
678	N	0.704504	0.353926	0.671789
679	C	0.8171	0.13287	0.671418
680	N	0.852538	0.149815	0.671461
681	C	0.871968	0.185199	0.671418
682	N	0.855023	0.203692	0.671461
683	C	0.819638	0.187738	0.671418
684	N	0.801144	0.1523	0.671465
685	C	0.80249	0.207514	0.005285
686	C	0.815837	0.23897	0.981058
687	C	0.798454	0.258236	0.981001
688	C	0.767676	0.247564	0.006382
689	C	0.75438	0.215929	0.697783
690	C	0.771533	0.196253	0.696742
691	H	0.761798	0.17389	0.71533
692	C	0.748512	0.266097	0.005996
693	C	0.763461	0.301431	0.992673
694	C	0.74403	0.318636	0.992669
695	C	0.708575	0.301238	0.005518
696	C	0.693607	0.266123	0.686094
697	C	0.713156	0.248839	0.687342
698	H	0.78907	0.315639	0.983685
699	H	0.756133	0.344097	0.9825
700	H	0.668153	0.252921	0.696347
701	H	0.837734	0.247537	0.961797
702	C	0.696204	0.211982	0.702879
703	C	0.72279	0.204161	0.726042
704	H	0.684932	0.194886	0.673917
705	H	0.675141	0.20617	0.726564
706	H	0.710061	0.176247	0.733273
707	H	0.730799	0.218156	0.757894
708	H	0.808405	0.279807	0.961071
709	C	0.797324	0.095946	0.005285
710	C	0.765867	0.077835	0.981058
711	C	0.746602	0.041187	0.981004
712	C	0.757273	0.021081	0.006382
713	C	0.788908	0.039421	0.697783
714	C	0.808585	0.076248	0.696739
715	H	0.830949	0.088877	0.71533
716	C	0.738742	0.483384	0.005997
717	C	0.703408	0.463001	0.992676
718	C	0.686203	0.426364	0.992673
719	C	0.7036	0.408306	0.00552
720	C	0.738714	0.428454	0.686094
721	C	0.756	0.465287	0.687342
722	H	0.689199	0.474402	0.983688
723	H	0.660743	0.413005	0.9825
724	H	0.751917	0.416201	0.696347
725	H	0.7573	0.091166	0.961797
726	C	0.792856	0.48519	0.702876
727	C	0.800675	0.019597	0.726042
728	H	0.809949	0.491016	0.673917
729	H	0.798667	0.469937	0.726564
730	H	0.828593	0.034783	0.733273
731	H	0.786682	0.013611	0.757891
732	H	0.725028	0.029565	0.961071
733	C	0.90889	0.202348	0.005279
734	C	0.927003	0.189013	0.981031
735	C	0.963651	0.206386	0.980994
736	C	0.983757	0.237162	0.006377
737	C	0.965415	0.250456	0.697783
738	C	0.928589	0.233304	0.696742
739	H	0.915961	0.243035	0.715337
740	C	0.521453	0.256325	0.005996
741	C	0.541836	0.241377	0.992666
742	C	0.578475	0.260808	0.992666
743	C	0.596531	0.296262	0.00552
744	C	0.576385	0.311229	0.686101
745	C	0.539552	0.29168	0.687349
746	H	0.530437	0.21577	0.983675
747	H	0.591833	0.248708	0.98249
748	H	0.588637	0.336681	0.696361
749	H	0.913671	0.167103	0.961794
750	C	0.519646	0.30863	0.702889
751	C	0.985239	0.282041	0.726052
752	H	0.513826	0.319906	0.673934
753	H	0.5349	0.329693	0.726584
754	H	0.970053	0.294774	0.733286
755	H	0.991222	0.274028	0.757891
756	H	0.975271	0.196435	0.961064
757	C	0.686296	0.871176	0.0051
758	N	0.650911	0.851547	0.005123
759	C	0.633662	0.816088	0.0051
760	N	0.653292	0.800334	0.005122
761	C	0.688751	0.818543	0.005099
762	N	0.704507	0.853929	0.005122
763	C	0.817099	0.63287	0.004752
764	N	0.852539	0.649815	0.004795
765	C	0.871967	0.685199	0.00475
766	N	0.855022	0.703692	0.004796
767	C	0.81964	0.68774	0.004753
768	N	0.801145	0.652299	0.004798
769	C	0.802491	0.707513	0.338618
770	C	0.815838	0.738971	0.31439
771	C	0.798455	0.758236	0.314336
772	C	0.767678	0.747565	0.339716
773	C	0.754382	0.71593	0.031118
774	C	0.771532	0.696253	0.030075
775	H	0.761798	0.673892	0.048666
776	C	0.748513	0.766097	0.339328
777	C	0.763462	0.801431	0.326006
778	C	0.744032	0.818637	0.326003
779	C	0.708574	0.801238	0.338853
780	C	0.693608	0.766123	0.019428
781	C	0.713158	0.748839	0.020676
782	H	0.78907	0.815639	0.31702
783	H	0.756132	0.844097	0.315832
784	H	0.668154	0.752921	0.029681
785	H	0.837732	0.747536	0.29513
786	C	0.696204	0.711983	0.036213
787	C	0.722791	0.704161	0.059377
788	H	0.684933	0.694887	0.00725
789	H	0.67514	0.706171	0.059898
790	H	0.71006	0.676248	0.066607
791	H	0.730799	0.718158	0.091227
792	H	0.808404	0.779808	0.294403
793	C	0.797323	0.595946	0.338618
794	C	0.765867	0.577836	0.314391
795	C	0.746601	0.541189	0.314337
796	C	0.757275	0.521082	0.339716
797	C	0.788909	0.539421	0.031118
798	C	0.808585	0.576249	0.030074
799	H	0.830948	0.588877	0.048664
800	C	0.738741	0.983384	0.339331
801	C	0.703408	0.963001	0.326008
802	C	0.686202	0.926364	0.326006
803	C	0.703601	0.908306	0.338853
804	C	0.738716	0.928455	0.019429
805	C	0.755999	0.965287	0.020676
806	H	0.6892	0.974402	0.317022
807	H	0.660742	0.913006	0.315835
808	H	0.751916	0.916201	0.029681
809	H	0.757299	0.591166	0.295131
810	C	0.792857	0.985193	0.036211
811	C	0.800677	0.519599	0.059377
812	H	0.809951	0.991016	0.007251
813	H	0.798669	0.969937	0.059899
814	H	0.828595	0.534784	0.066607
815	H	0.786684	0.513612	0.091224
816	H	0.72503	0.529566	0.294405
817	C	0.908892	0.70235	0.338612
818	C	0.927003	0.689015	0.314365
819	C	0.96365	0.706387	0.314327
820	C	0.983756	0.737162	0.339709
821	C	0.965416	0.750456	0.031116
822	C	0.928591	0.733305	0.030075
823	H	0.915959	0.743035	0.048672
824	C	0.521454	0.756325	0.339328
825	C	0.541837	0.741377	0.326001
826	C	0.578475	0.760809	0.325999
827	C	0.596531	0.796262	0.338853
828	C	0.576385	0.811229	0.019436
829	C	0.539552	0.79168	0.020683
830	H	0.530438	0.715771	0.317008
831	H	0.591834	0.748709	0.315823
832	H	0.588637	0.836682	0.029693
833	H	0.913673	0.667104	0.295127
834	C	0.519647	0.80863	0.036223
835	C	0.985241	0.782041	0.059384
836	H	0.513827	0.819906	0.00727
837	H	0.534902	0.829694	0.059919
838	H	0.970052	0.794774	0.066619
839	H	0.991223	0.774029	0.091226
840	H	0.975272	0.696435	0.294398
841	C	0.686296	0.871176	0.338434
842	N	0.650911	0.851547	0.338458
843	C	0.633662	0.816088	0.338434
844	N	0.653292	0.800334	0.338454
845	C	0.688751	0.818543	0.338431
846	N	0.704507	0.853929	0.338454
847	C	0.817099	0.63287	0.338086
848	N	0.852539	0.649815	0.338127
849	C	0.871967	0.685199	0.338083
850	N	0.855022	0.703692	0.33813
851	C	0.81964	0.68774	0.338086
852	N	0.801145	0.652299	0.33813
853	C	0.802491	0.707513	0.67195
854	C	0.815838	0.738971	0.647723
855	C	0.798455	0.758236	0.64767
856	C	0.767678	0.747565	0.673047
857	C	0.754382	0.71593	0.364451
858	C	0.771532	0.696253	0.363407
859	H	0.761798	0.673892	0.381999
860	C	0.748513	0.766097	0.672663
861	C	0.763462	0.801431	0.659341
862	C	0.744032	0.818637	0.659338
863	C	0.708574	0.801238	0.672184
864	C	0.693608	0.766123	0.352763
865	C	0.713158	0.748839	0.354008
866	H	0.78907	0.815639	0.650353
867	H	0.756132	0.844097	0.649165
868	H	0.668154	0.752921	0.363012
869	H	0.837732	0.747536	0.628462
870	C	0.696204	0.711983	0.369544
871	C	0.722791	0.704161	0.39271
872	H	0.684933	0.694887	0.340583
873	H	0.67514	0.706171	0.393232
874	H	0.71006	0.676248	0.399941
875	H	0.730799	0.718158	0.42456
876	H	0.808404	0.779808	0.627736
877	C	0.797323	0.595946	0.67195
878	C	0.765867	0.577836	0.647723
879	C	0.746601	0.541189	0.64767
880	C	0.757275	0.521082	0.673047
881	C	0.788909	0.539421	0.364451
882	C	0.808585	0.576249	0.363407
883	H	0.830948	0.588877	0.381996
884	C	0.738741	0.983384	0.672663
885	C	0.703408	0.963001	0.659341
886	C	0.686202	0.926364	0.659338
887	C	0.703601	0.908306	0.672187
888	C	0.738716	0.928455	0.352763
889	C	0.755999	0.965287	0.354011
890	H	0.6892	0.974402	0.650353
891	H	0.660742	0.913006	0.649169
892	H	0.751916	0.916201	0.363016
893	H	0.757299	0.591166	0.628466
894	C	0.792857	0.985193	0.369544
895	C	0.800677	0.519599	0.39271
896	H	0.809951	0.991016	0.340583
897	H	0.798669	0.969937	0.393232
898	H	0.828595	0.534784	0.399941
899	H	0.786684	0.513612	0.424556
900	H	0.72503	0.529566	0.627739
901	C	0.908892	0.70235	0.671946
902	C	0.927003	0.689015	0.647696
903	C	0.96365	0.706387	0.647659
904	C	0.983756	0.737162	0.673044
905	C	0.965416	0.750456	0.364448
906	C	0.928591	0.733305	0.363407
907	H	0.915959	0.743035	0.382006
908	C	0.521454	0.756325	0.672663
909	C	0.541837	0.741377	0.659334
910	C	0.578475	0.760809	0.659331
911	C	0.596531	0.796262	0.672187
912	C	0.576385	0.811229	0.35277
913	C	0.539552	0.79168	0.354014
914	H	0.530438	0.715771	0.65034
915	H	0.591834	0.748709	0.649155
916	H	0.588637	0.836682	0.363026
917	H	0.913673	0.667104	0.628459
918	C	0.519647	0.80863	0.369554
919	C	0.985241	0.782041	0.392717
920	H	0.513827	0.819906	0.340603
921	H	0.534902	0.829694	0.393252
922	H	0.970052	0.794774	0.399951
923	H	0.991223	0.774029	0.42456
924	H	0.975272	0.696435	0.627729
925	C	0.686296	0.871176	0.671766
926	N	0.650911	0.851547	0.671789
927	C	0.633662	0.816088	0.671766
928	N	0.653292	0.800334	0.671789
929	C	0.688751	0.818543	0.671766
930	N	0.704507	0.853929	0.671789
931	C	0.817099	0.63287	0.671418
932	N	0.852539	0.649815	0.671461
933	C	0.871967	0.685199	0.671418
934	N	0.855022	0.703692	0.671461
935	C	0.81964	0.68774	0.671418
936	N	0.801145	0.652299	0.671465
937	C	0.802491	0.707513	0.005285
938	C	0.815838	0.738971	0.981058
939	C	0.798455	0.758236	0.981001
940	C	0.767678	0.747565	0.006382
941	C	0.754382	0.71593	0.697783
942	C	0.771532	0.696253	0.696742
943	H	0.761798	0.673892	0.71533
944	C	0.748513	0.766097	0.005996
945	C	0.763462	0.801431	0.992673
946	C	0.744032	0.818637	0.992669
947	C	0.708574	0.801238	0.005518
948	C	0.693608	0.766123	0.686094
949	C	0.713158	0.748839	0.687342
950	H	0.78907	0.815639	0.983685
951	H	0.756132	0.844097	0.9825
952	H	0.668154	0.752921	0.696347
953	H	0.837732	0.747536	0.961797
954	C	0.696204	0.711983	0.702879
955	C	0.722791	0.704161	0.726042
956	H	0.684933	0.694887	0.673917
957	H	0.67514	0.706171	0.726564
958	H	0.71006	0.676248	0.733273
959	H	0.730799	0.718158	0.757894
960	H	0.808404	0.779808	0.961071
961	C	0.797323	0.595946	0.005285
962	C	0.765867	0.577836	0.981058
963	C	0.746601	0.541189	0.981004
964	C	0.757275	0.521082	0.006382
965	C	0.788909	0.539421	0.697783
966	C	0.808585	0.576249	0.696739
967	H	0.830948	0.588877	0.71533
968	C	0.738741	0.983384	0.005997
969	C	0.703408	0.963001	0.992676
970	C	0.686202	0.926364	0.992673
971	C	0.703601	0.908306	0.00552
972	C	0.738716	0.928455	0.686094
973	C	0.755999	0.965287	0.687342
974	H	0.6892	0.974402	0.983688
975	H	0.660742	0.913006	0.9825
976	H	0.751916	0.916201	0.696347
977	H	0.757299	0.591166	0.961797
978	C	0.792857	0.985193	0.702876
979	C	0.800677	0.519599	0.726042
980	H	0.809951	0.991016	0.673917
981	H	0.798669	0.969937	0.726564
982	H	0.828595	0.534784	0.733273
983	H	0.786684	0.513612	0.757891
984	H	0.72503	0.529566	0.961071
985	C	0.908892	0.70235	0.005279
986	C	0.927003	0.689015	0.981031
987	C	0.96365	0.706387	0.980994
988	C	0.983756	0.737162	0.006377
989	C	0.965416	0.750456	0.697783
990	C	0.928591	0.733305	0.696742
991	H	0.915959	0.743035	0.715337
992	C	0.521454	0.756325	0.005996
993	C	0.541837	0.741377	0.992666
994	C	0.578475	0.760809	0.992666
995	C	0.596531	0.796262	0.00552
996	C	0.576385	0.811229	0.686101
997	C	0.539552	0.79168	0.687349
998	H	0.530438	0.715771	0.983675
999	H	0.591834	0.748709	0.98249
1000	H	0.588637	0.836682	0.696361
1001	H	0.913673	0.667104	0.961794
1002	C	0.519647	0.80863	0.702889
1003	C	0.985241	0.782041	0.726052
1004	H	0.513827	0.819906	0.673934
1005	H	0.534902	0.829694	0.726584
1006	H	0.970052	0.794774	0.733286
1007	H	0.991223	0.774029	0.757891
1008	H	0.975272	0.696435	0.961064
