data_C576H288N72O144_2018-02-15_10:39:06
#******************************************
#
# CIF file created by Zeo++
# Zeo++ is an open source package to
# analyze microporous materials
#
#*******************************************

_cell_length_a		44.5534   
_cell_length_b		44.5534   
_cell_length_c		29.7056   
_cell_angle_alpha		90   
_cell_angle_beta		90   
_cell_angle_gamma		120   

_symmetry_space_group_name_H-M		'P1'
_symmetry_Int_Tables_number		1
_symmetry_cell_setting		Monoclinic

loop_
_symmetry_equiv_pos_as_xyz
'+x,+y,+z'

loop_
_atom_site_label
_atom_site_type_symbol
_atom_site_fract_x
_atom_site_fract_y
_atom_site_fract_z
1	C	0.026057	0.264664	0.00934
2	C	0.045007	0.26037	0.044823
3	C	0.081758	0.278561	0.043396
4	C	0.100239	0.30162	0.007942
5	C	0.026056	0.764664	0.00934
6	C	0.045007	0.76037	0.044823
7	C	0.081758	0.778561	0.043396
8	C	0.100238	0.80162	0.007942
9	C	0.081119	0.306	0.306542
10	C	0.044635	0.287469	0.306945
11	H	0.095126	0.275244	0.069116
12	H	0.093649	0.322304	0.280171
13	H	0.031682	0.291273	0.281124
14	N	0.026964	0.23739	0.080677
15	O	0.034302	0.253002	0.117809
16	C	0.026057	0.264664	0.342673
17	C	0.045007	0.26037	0.378155
18	C	0.081758	0.278561	0.376727
19	C	0.100239	0.30162	0.341276
20	C	0.081119	0.306	0.639876
21	C	0.044635	0.287469	0.640277
22	H	0.095126	0.275244	0.40245
23	H	0.093649	0.322304	0.613504
24	H	0.031682	0.291273	0.614457
25	N	0.026964	0.23739	0.41401
26	O	0.034302	0.253002	0.451141
27	C	0.026057	0.264664	0.676008
28	C	0.045007	0.26037	0.711489
29	C	0.081758	0.278561	0.710062
30	C	0.100239	0.30162	0.674607
31	C	0.081119	0.306	0.973208
32	C	0.044635	0.287469	0.973612
33	H	0.095126	0.275244	0.735781
34	H	0.093649	0.322304	0.946836
35	H	0.031682	0.291273	0.947792
36	N	0.026964	0.23739	0.747344
37	O	0.034302	0.253002	0.784476
38	C	0.081119	0.806	0.306542
39	C	0.044637	0.787469	0.306945
40	H	0.095124	0.775241	0.069116
41	H	0.09365	0.822304	0.280171
42	H	0.031683	0.791274	0.281124
43	N	0.026963	0.737389	0.080677
44	O	0.034303	0.753002	0.117809
45	C	0.026056	0.764664	0.342673
46	C	0.045007	0.76037	0.378155
47	C	0.081758	0.778561	0.376727
48	C	0.100238	0.80162	0.341276
49	C	0.081119	0.806	0.639876
50	C	0.044637	0.787469	0.640277
51	H	0.095124	0.775241	0.40245
52	H	0.09365	0.822304	0.613504
53	H	0.031683	0.791274	0.614457
54	N	0.026963	0.737389	0.41401
55	O	0.034303	0.753002	0.451141
56	C	0.026056	0.764664	0.676008
57	C	0.045007	0.76037	0.711489
58	C	0.081758	0.778561	0.710062
59	C	0.100238	0.80162	0.674607
60	C	0.081119	0.806	0.973208
61	C	0.044637	0.787469	0.973612
62	H	0.095124	0.775241	0.735781
63	H	0.09365	0.822304	0.946836
64	H	0.031683	0.791274	0.947792
65	N	0.026963	0.737389	0.747344
66	O	0.034303	0.753002	0.784476
67	O	0.033661	0.213179	0.082876
68	O	0.033661	0.213179	0.416208
69	O	0.033661	0.213179	0.749543
70	O	0.033661	0.71318	0.082876
71	O	0.033661	0.71318	0.416208
72	O	0.033661	0.71318	0.749543
73	C	0.137177	0.319959	0.007359
74	C	0.156016	0.356624	0.007376
75	C	0.155765	0.301868	0.00737
76	H	0.142397	0.275311	0.007581
77	H	0.142826	0.369992	0.007583
78	C	0.137175	0.819956	0.007359
79	C	0.156016	0.856624	0.007376
80	C	0.155766	0.801869	0.00737
81	H	0.142397	0.775311	0.007581
82	H	0.142825	0.869992	0.007583
83	C	0.137177	0.319959	0.340694
84	C	0.156016	0.356624	0.34071
85	C	0.155765	0.301868	0.340704
86	H	0.142397	0.275311	0.340912
87	H	0.142826	0.369992	0.340916
88	C	0.137177	0.319959	0.674025
89	C	0.156016	0.356624	0.674042
90	C	0.155765	0.301868	0.674035
91	H	0.142397	0.275311	0.674247
92	H	0.142826	0.369992	0.67425
93	C	0.137175	0.819956	0.340694
94	C	0.156016	0.856624	0.34071
95	C	0.155766	0.801869	0.340704
96	H	0.142397	0.775311	0.340912
97	H	0.142825	0.869992	0.340916
98	C	0.137175	0.819956	0.674025
99	C	0.156016	0.856624	0.674042
100	C	0.155766	0.801869	0.674035
101	H	0.142397	0.775311	0.674247
102	H	0.142825	0.869992	0.67425
103	C	0.192693	0.375214	0.007362
104	C	0.210519	0.356372	0.007376
105	C	0.192432	0.319697	0.007359
106	C	0.210769	0.301096	0.007942
107	C	0.225273	0.467384	0.044824
108	C	0.206713	0.43063	0.043397
109	C	0.211293	0.412151	0.007945
110	C	0.192693	0.875212	0.007362
111	C	0.210519	0.856373	0.007376
112	C	0.192432	0.819697	0.007359
113	C	0.21077	0.801096	0.007942
114	C	0.225273	0.967381	0.044824
115	C	0.206713	0.930631	0.043397
116	C	0.211292	0.912149	0.007945
117	C	0.206385	0.277592	0.306546
118	C	0.224916	0.259639	0.306949
119	H	0.190076	0.273813	0.280178
120	H	0.221106	0.242877	0.281132
121	H	0.190026	0.417265	0.069116
122	N	0.220333	0.485424	0.080676
123	O	0.189425	0.978728	0.082872
124	C	0.192693	0.375214	0.340697
125	C	0.210519	0.356372	0.34071
126	C	0.192432	0.319697	0.340694
127	C	0.210769	0.301096	0.341276
128	C	0.206385	0.277592	0.63988
129	C	0.224916	0.259639	0.64028
130	H	0.190076	0.273813	0.613511
131	H	0.221106	0.242877	0.614464
132	C	0.225273	0.467384	0.378158
133	C	0.206713	0.43063	0.376731
134	C	0.211293	0.412151	0.341279
135	H	0.190026	0.417265	0.40245
136	N	0.220333	0.485424	0.41401
137	O	0.189425	0.978728	0.416205
138	C	0.192693	0.375214	0.674028
139	C	0.210519	0.356372	0.674042
140	C	0.192432	0.319697	0.674025
141	C	0.210769	0.301096	0.674607
142	C	0.206385	0.277592	0.973211
143	C	0.224916	0.259639	0.973615
144	H	0.190076	0.273813	0.946846
145	H	0.221106	0.242877	0.947798
146	C	0.225273	0.467384	0.711489
147	C	0.206713	0.43063	0.710062
148	C	0.211293	0.412151	0.674611
149	H	0.190026	0.417265	0.735781
150	N	0.220333	0.485424	0.747341
151	O	0.189425	0.978728	0.749539
152	C	0.206385	0.777592	0.306546
153	C	0.224916	0.759639	0.306949
154	H	0.190077	0.773813	0.280178
155	H	0.221106	0.742876	0.281132
156	H	0.190025	0.917263	0.069116
157	N	0.220334	0.985425	0.080676
158	O	0.189427	0.47873	0.082872
159	C	0.192693	0.875212	0.340697
160	C	0.210519	0.856373	0.34071
161	C	0.192432	0.819697	0.340694
162	C	0.21077	0.801096	0.341276
163	C	0.206385	0.777592	0.63988
164	C	0.224916	0.759639	0.64028
165	H	0.190077	0.773813	0.613511
166	H	0.221106	0.742876	0.614464
167	C	0.225273	0.967381	0.378158
168	C	0.206713	0.930631	0.376731
169	C	0.211292	0.912149	0.341279
170	H	0.190025	0.917263	0.40245
171	N	0.220334	0.985425	0.41401
172	O	0.189427	0.47873	0.416205
173	C	0.192693	0.875212	0.674028
174	C	0.210519	0.856373	0.674042
175	C	0.192432	0.819697	0.674025
176	C	0.21077	0.801096	0.674607
177	C	0.206385	0.777592	0.973211
178	C	0.224916	0.759639	0.973615
179	H	0.190077	0.773813	0.946846
180	H	0.221106	0.742876	0.947798
181	C	0.225273	0.967381	0.711489
182	C	0.206713	0.930631	0.710062
183	C	0.211292	0.912149	0.674611
184	H	0.190025	0.917263	0.735781
185	N	0.220334	0.985425	0.747341
186	O	0.189427	0.47873	0.749539
187	H	0.237078	0.369564	0.007583
188	C	0.377726	0.190812	0.007539
189	C	0.359659	0.154135	0.007351
190	C	0.322998	0.134663	0.007541
191	C	0.304389	0.152732	0.00734
192	C	0.321577	0.189392	0.007538
193	C	0.358255	0.208001	0.007337
194	H	0.277845	0.138946	0.007499
195	H	0.371013	0.234545	0.007495
196	H	0.373444	0.141377	0.007499
197	C	0.30243	0.207297	0.008607
198	C	0.278977	0.202483	0.044052
199	C	0.260982	0.221252	0.043698
200	C	0.265659	0.24478	0.008823
201	C	0.247725	0.263868	0.00934
202	C	0.252025	0.287119	0.044818
203	C	0.233832	0.305678	0.043391
204	C	0.305093	0.097611	0.00861
205	C	0.309907	0.078971	0.044053
206	C	0.291139	0.042207	0.043699
207	C	0.267609	0.023356	0.008827
208	C	0.248519	0.486332	0.009343
209	C	0.414779	0.20996	0.008607
210	C	0.433418	0.233417	0.044049
211	C	0.470182	0.251411	0.043695
212	C	0.489034	0.24673	0.008824
213	H	0.237077	0.869562	0.007583
214	C	0.377726	0.690811	0.007539
215	C	0.359658	0.654135	0.007351
216	C	0.322998	0.634664	0.007541
217	C	0.304388	0.652731	0.00734
218	C	0.321578	0.689393	0.007538
219	C	0.358256	0.708002	0.007337
220	H	0.277845	0.638945	0.007499
221	H	0.371012	0.734543	0.007495
222	H	0.373444	0.641376	0.007499
223	C	0.30243	0.707297	0.008607
224	C	0.278977	0.702484	0.044052
225	C	0.260981	0.721251	0.043698
226	C	0.265659	0.744781	0.008823
227	C	0.247725	0.763869	0.00934
228	C	0.252025	0.787119	0.044818
229	C	0.233833	0.805678	0.043391
230	C	0.305092	0.59761	0.00861
231	C	0.309908	0.57897	0.044053
232	C	0.291139	0.542207	0.043699
233	C	0.267609	0.523357	0.008827
234	C	0.248518	0.986332	0.009343
235	C	0.414778	0.709958	0.008607
236	C	0.433419	0.733416	0.044049
237	C	0.470182	0.75141	0.043695
238	C	0.489033	0.74673	0.008824
239	C	0.637177	0.319959	0.007359
240	C	0.656015	0.356624	0.007376
241	C	0.692693	0.375214	0.007362
242	C	0.710518	0.356372	0.007376
243	C	0.692432	0.319697	0.007359
244	C	0.655764	0.301868	0.00737
245	H	0.737079	0.369564	0.007583
246	H	0.642396	0.275311	0.007581
247	H	0.642826	0.369992	0.007583
248	C	0.877726	0.190812	0.007539
249	C	0.859656	0.154135	0.007351
250	C	0.822998	0.134663	0.007541
251	C	0.804389	0.152732	0.00734
252	C	0.821577	0.189392	0.007538
253	C	0.858255	0.208001	0.007337
254	H	0.777845	0.138946	0.007499
255	H	0.871013	0.234545	0.007495
256	H	0.873444	0.141377	0.007499
257	C	0.80243	0.207297	0.008607
258	C	0.778977	0.202483	0.044052
259	C	0.76098	0.221252	0.043698
260	C	0.765659	0.24478	0.008823
261	C	0.747723	0.263868	0.00934
262	C	0.752025	0.287119	0.044818
263	C	0.733832	0.305678	0.043391
264	C	0.71077	0.301096	0.007942
265	C	0.805093	0.097611	0.00861
266	C	0.809907	0.078971	0.044053
267	C	0.791139	0.042207	0.043699
268	C	0.767609	0.023356	0.008827
269	C	0.748519	0.486332	0.009343
270	C	0.725273	0.467384	0.044824
271	C	0.706712	0.43063	0.043397
272	C	0.711292	0.412151	0.007945
273	C	0.914779	0.20996	0.008607
274	C	0.933418	0.233417	0.044049
275	C	0.970182	0.251411	0.043695
276	C	0.989034	0.24673	0.008824
277	C	0.526057	0.264664	0.00934
278	C	0.545006	0.26037	0.044823
279	C	0.581758	0.278561	0.043396
280	C	0.600239	0.30162	0.007942
281	C	0.637175	0.819956	0.007359
282	C	0.656016	0.856624	0.007376
283	C	0.692693	0.875212	0.007362
284	C	0.710519	0.856373	0.007376
285	C	0.692433	0.819697	0.007359
286	C	0.655766	0.801869	0.00737
287	H	0.737077	0.869562	0.007583
288	H	0.642397	0.775311	0.007581
289	H	0.642826	0.869992	0.007583
290	C	0.877726	0.690811	0.007539
291	C	0.859658	0.654135	0.007351
292	C	0.822997	0.634664	0.007541
293	C	0.804387	0.652731	0.00734
294	C	0.821578	0.689393	0.007538
295	C	0.858256	0.708002	0.007337
296	H	0.777844	0.638945	0.007499
297	H	0.871011	0.734543	0.007495
298	H	0.873443	0.641376	0.007499
299	C	0.802431	0.707297	0.008607
300	C	0.778976	0.702484	0.044052
301	C	0.760981	0.721251	0.043698
302	C	0.76566	0.744781	0.008823
303	C	0.747725	0.763869	0.00934
304	C	0.752024	0.787119	0.044818
305	C	0.733833	0.805678	0.043391
306	C	0.710769	0.801096	0.007942
307	C	0.805092	0.59761	0.00861
308	C	0.809908	0.57897	0.044053
309	C	0.791138	0.542207	0.043699
310	C	0.767608	0.523357	0.008827
311	C	0.748518	0.986332	0.009343
312	C	0.725273	0.967381	0.044824
313	C	0.706713	0.930631	0.043397
314	C	0.711292	0.912149	0.007945
315	C	0.914777	0.709958	0.008607
316	C	0.933419	0.733416	0.044049
317	C	0.970183	0.75141	0.043695
318	C	0.989033	0.74673	0.008824
319	C	0.526057	0.764664	0.00934
320	C	0.545007	0.76037	0.044823
321	C	0.581758	0.778561	0.043396
322	C	0.600239	0.80162	0.007942
323	C	0.288818	0.249124	0.306972
324	C	0.307088	0.230908	0.307079
325	H	0.293044	0.266116	0.2813
326	H	0.323698	0.234831	0.281025
327	H	0.237156	0.322369	0.069108
328	H	0.244158	0.217539	0.069399
329	N	0.27501	0.292061	0.080667
330	N	0.274655	0.179828	0.080064
331	O	0.259403	0.283791	0.117803
332	O	0.243731	0.155756	0.083199
333	O	0.299222	0.32297	0.082857
334	O	0.283706	0.195704	0.116964
335	C	0.263262	0.042171	0.306977
336	C	0.281479	0.078657	0.307084
337	H	0.246272	0.029406	0.281306
338	H	0.277556	0.091344	0.281031
339	C	0.234795	0.43127	0.306547
340	C	0.252748	0.467754	0.306949
341	H	0.23857	0.418739	0.280177
342	H	0.269508	0.480708	0.28113
343	H	0.294852	0.029096	0.069399
344	N	0.332565	0.097304	0.080065
345	O	0.228606	0.478087	0.11781
346	O	0.356636	0.090451	0.083197
347	O	0.316691	0.090479	0.116966
348	C	0.470219	0.223568	0.306976
349	C	0.433732	0.205297	0.307083
350	H	0.482983	0.219339	0.281307
351	H	0.421045	0.188685	0.281031
352	H	0.483293	0.268238	0.069394
353	N	0.415086	0.237742	0.080059
354	O	0.421938	0.268666	0.083188
355	O	0.533661	0.213179	0.082876
356	O	0.42191	0.228694	0.116962
357	H	0.237078	0.369564	0.340916
358	C	0.377726	0.190812	0.340872
359	C	0.359659	0.154135	0.340683
360	C	0.322998	0.134663	0.340875
361	C	0.304389	0.152732	0.340673
362	C	0.321577	0.189392	0.340872
363	C	0.358255	0.208001	0.34067
364	H	0.277845	0.138946	0.340832
365	H	0.371013	0.234545	0.340828
366	H	0.373444	0.141377	0.340832
367	C	0.30243	0.207297	0.341939
368	C	0.278977	0.202483	0.377384
369	C	0.260982	0.221252	0.37703
370	C	0.265659	0.24478	0.342158
371	C	0.288818	0.249124	0.640304
372	C	0.307088	0.230908	0.640412
373	H	0.293044	0.266116	0.614632
374	H	0.323698	0.234831	0.614359
375	C	0.247725	0.263868	0.342673
376	C	0.252025	0.287119	0.378151
377	C	0.233832	0.305678	0.376724
378	H	0.237156	0.322369	0.40244
379	H	0.244158	0.217539	0.402732
380	N	0.27501	0.292061	0.414
381	N	0.274655	0.179828	0.413397
382	O	0.259403	0.283791	0.451137
383	O	0.243731	0.155756	0.416531
384	O	0.299222	0.32297	0.416191
385	O	0.283706	0.195704	0.450296
386	C	0.305093	0.097611	0.341943
387	C	0.309907	0.078971	0.377387
388	C	0.291139	0.042207	0.377034
389	C	0.267609	0.023356	0.342161
390	C	0.263262	0.042171	0.640311
391	C	0.281479	0.078657	0.640418
392	H	0.246272	0.029406	0.614639
393	H	0.277556	0.091344	0.614363
394	C	0.248519	0.486332	0.342676
395	C	0.234795	0.43127	0.63988
396	C	0.252748	0.467754	0.640284
397	H	0.23857	0.418739	0.613511
398	H	0.269508	0.480708	0.614464
399	H	0.294852	0.029096	0.402732
400	N	0.332565	0.097304	0.413397
401	O	0.228606	0.478087	0.451144
402	O	0.356636	0.090451	0.416531
403	O	0.316691	0.090479	0.450299
404	C	0.414779	0.20996	0.341939
405	C	0.433418	0.233417	0.377384
406	C	0.470182	0.251411	0.377027
407	C	0.489034	0.24673	0.342158
408	C	0.470219	0.223568	0.640307
409	C	0.433732	0.205297	0.640415
410	H	0.482983	0.219339	0.614639
411	H	0.421045	0.188685	0.614363
412	H	0.483293	0.268238	0.402726
413	N	0.415086	0.237742	0.41339
414	O	0.421938	0.268666	0.416521
415	O	0.533661	0.213179	0.416208
416	O	0.42191	0.228694	0.450296
417	H	0.237078	0.369564	0.67425
418	C	0.377726	0.190812	0.674207
419	C	0.359659	0.154135	0.674018
420	C	0.322998	0.134663	0.674207
421	C	0.304389	0.152732	0.674005
422	C	0.321577	0.189392	0.674203
423	C	0.358255	0.208001	0.674005
424	H	0.277845	0.138946	0.674166
425	H	0.371013	0.234545	0.67416
426	H	0.373444	0.141377	0.674166
427	C	0.30243	0.207297	0.675274
428	C	0.278977	0.202483	0.710718
429	C	0.260982	0.221252	0.710365
430	C	0.265659	0.24478	0.675489
431	C	0.288818	0.249124	0.973639
432	C	0.307088	0.230908	0.973746
433	H	0.293044	0.266116	0.947967
434	H	0.323698	0.234831	0.947691
435	C	0.247725	0.263868	0.676004
436	C	0.252025	0.287119	0.711483
437	C	0.233832	0.305678	0.710059
438	H	0.237156	0.322369	0.735774
439	H	0.244158	0.217539	0.736064
440	N	0.27501	0.292061	0.747334
441	N	0.274655	0.179828	0.746732
442	O	0.259403	0.283791	0.784469
443	O	0.243731	0.155756	0.749866
444	O	0.299222	0.32297	0.749523
445	O	0.283706	0.195704	0.783631
446	C	0.305093	0.097611	0.675277
447	C	0.309907	0.078971	0.710718
448	C	0.291139	0.042207	0.710365
449	C	0.267609	0.023356	0.675493
450	C	0.263262	0.042171	0.973642
451	C	0.281479	0.078657	0.97375
452	H	0.246272	0.029406	0.947973
453	H	0.277556	0.091344	0.947697
454	C	0.248519	0.486332	0.676008
455	C	0.234795	0.43127	0.973215
456	C	0.252748	0.467754	0.973615
457	H	0.23857	0.418739	0.946842
458	H	0.269508	0.480708	0.947795
459	H	0.294852	0.029096	0.736064
460	N	0.332565	0.097304	0.746732
461	O	0.228606	0.478087	0.784476
462	O	0.356636	0.090451	0.749863
463	O	0.316691	0.090479	0.783634
464	C	0.414779	0.20996	0.675274
465	C	0.433418	0.233417	0.710715
466	C	0.470182	0.251411	0.710362
467	C	0.489034	0.24673	0.675489
468	C	0.470219	0.223568	0.973642
469	C	0.433732	0.205297	0.97375
470	H	0.482983	0.219339	0.947973
471	H	0.421045	0.188685	0.947697
472	H	0.483293	0.268238	0.73606
473	N	0.415086	0.237742	0.746725
474	O	0.421938	0.268666	0.749856
475	O	0.533661	0.213179	0.749543
476	O	0.42191	0.228694	0.783627
477	C	0.288818	0.749125	0.306972
478	C	0.307088	0.730907	0.307079
479	H	0.293043	0.766113	0.2813
480	H	0.323698	0.734831	0.281025
481	H	0.237156	0.822369	0.069108
482	H	0.244158	0.717539	0.069399
483	N	0.27501	0.792062	0.080667
484	N	0.274655	0.679827	0.080064
485	O	0.259403	0.783791	0.117803
486	O	0.24373	0.655755	0.083199
487	O	0.299221	0.822968	0.082857
488	O	0.283706	0.695704	0.116964
489	C	0.263263	0.54217	0.306977
490	C	0.281479	0.578657	0.307084
491	H	0.246271	0.529406	0.281306
492	H	0.277556	0.591346	0.281031
493	C	0.234796	0.931271	0.306547
494	C	0.252748	0.967754	0.306949
495	H	0.23857	0.91874	0.280177
496	H	0.269507	0.980705	0.28113
497	H	0.294852	0.529095	0.069399
498	N	0.332565	0.597304	0.080065
499	O	0.228606	0.978088	0.11781
500	O	0.356637	0.590451	0.083197
501	O	0.316691	0.59048	0.116966
502	C	0.470218	0.723568	0.306976
503	C	0.433731	0.705296	0.307083
504	H	0.482982	0.719338	0.281307
505	H	0.421045	0.688686	0.281031
506	H	0.483293	0.768236	0.069394
507	N	0.415085	0.737742	0.080059
508	O	0.421938	0.768666	0.083188
509	O	0.533661	0.71318	0.082876
510	O	0.42191	0.728694	0.116962
511	H	0.237077	0.869562	0.340916
512	C	0.377726	0.690811	0.340872
513	C	0.359658	0.654135	0.340683
514	C	0.322998	0.634664	0.340875
515	C	0.304388	0.652731	0.340673
516	C	0.321578	0.689393	0.340872
517	C	0.358256	0.708002	0.34067
518	H	0.277845	0.638945	0.340832
519	H	0.371012	0.734543	0.340828
520	H	0.373444	0.641376	0.340832
521	C	0.30243	0.707297	0.341939
522	C	0.278977	0.702484	0.377384
523	C	0.260981	0.721251	0.37703
524	C	0.265659	0.744781	0.342158
525	C	0.288818	0.749125	0.640304
526	C	0.307088	0.730907	0.640412
527	H	0.293043	0.766113	0.614632
528	H	0.323698	0.734831	0.614359
529	C	0.247725	0.763869	0.342673
530	C	0.252025	0.787119	0.378151
531	C	0.233833	0.805678	0.376724
532	H	0.237156	0.822369	0.40244
533	H	0.244158	0.717539	0.402732
534	N	0.27501	0.792062	0.414
535	N	0.274655	0.679827	0.413397
536	O	0.259403	0.783791	0.451137
537	O	0.24373	0.655755	0.416531
538	O	0.299221	0.822968	0.416191
539	O	0.283706	0.695704	0.450296
540	C	0.305092	0.59761	0.341943
541	C	0.309908	0.57897	0.377387
542	C	0.291139	0.542207	0.377034
543	C	0.267609	0.523357	0.342161
544	C	0.263263	0.54217	0.640311
545	C	0.281479	0.578657	0.640418
546	H	0.246271	0.529406	0.614639
547	H	0.277556	0.591346	0.614363
548	C	0.248518	0.986332	0.342676
549	C	0.234796	0.931271	0.63988
550	C	0.252748	0.967754	0.640284
551	H	0.23857	0.91874	0.613511
552	H	0.269507	0.980705	0.614464
553	H	0.294852	0.529095	0.402732
554	N	0.332565	0.597304	0.413397
555	O	0.228606	0.978088	0.451144
556	O	0.356637	0.590451	0.416531
557	O	0.316691	0.59048	0.450299
558	C	0.414778	0.709958	0.341939
559	C	0.433419	0.733416	0.377384
560	C	0.470182	0.75141	0.377027
561	C	0.489033	0.74673	0.342158
562	C	0.470218	0.723568	0.640307
563	C	0.433731	0.705296	0.640415
564	H	0.482982	0.719338	0.614639
565	H	0.421045	0.688686	0.614363
566	H	0.483293	0.768236	0.402726
567	N	0.415085	0.737742	0.41339
568	O	0.421938	0.768666	0.416521
569	O	0.533661	0.71318	0.416208
570	O	0.42191	0.728694	0.450296
571	H	0.237077	0.869562	0.67425
572	C	0.377726	0.690811	0.674207
573	C	0.359658	0.654135	0.674018
574	C	0.322998	0.634664	0.674207
575	C	0.304388	0.652731	0.674005
576	C	0.321578	0.689393	0.674203
577	C	0.358256	0.708002	0.674005
578	H	0.277845	0.638945	0.674166
579	H	0.371012	0.734543	0.67416
580	H	0.373444	0.641376	0.674166
581	C	0.30243	0.707297	0.675274
582	C	0.278977	0.702484	0.710718
583	C	0.260981	0.721251	0.710365
584	C	0.265659	0.744781	0.675489
585	C	0.288818	0.749125	0.973639
586	C	0.307088	0.730907	0.973746
587	H	0.293043	0.766113	0.947967
588	H	0.323698	0.734831	0.947691
589	C	0.247725	0.763869	0.676004
590	C	0.252025	0.787119	0.711483
591	C	0.233833	0.805678	0.710059
592	H	0.237156	0.822369	0.735774
593	H	0.244158	0.717539	0.736064
594	N	0.27501	0.792062	0.747334
595	N	0.274655	0.679827	0.746732
596	O	0.259403	0.783791	0.784469
597	O	0.24373	0.655755	0.749866
598	O	0.299221	0.822968	0.749523
599	O	0.283706	0.695704	0.783631
600	C	0.305092	0.59761	0.675277
601	C	0.309908	0.57897	0.710718
602	C	0.291139	0.542207	0.710365
603	C	0.267609	0.523357	0.675493
604	C	0.263263	0.54217	0.973642
605	C	0.281479	0.578657	0.97375
606	H	0.246271	0.529406	0.947973
607	H	0.277556	0.591346	0.947697
608	C	0.248518	0.986332	0.676008
609	C	0.234796	0.931271	0.973215
610	C	0.252748	0.967754	0.973615
611	H	0.23857	0.91874	0.946842
612	H	0.269507	0.980705	0.947795
613	H	0.294852	0.529095	0.736064
614	N	0.332565	0.597304	0.746732
615	O	0.228606	0.978088	0.784476
616	O	0.356637	0.590451	0.749863
617	O	0.316691	0.59048	0.783634
618	C	0.414778	0.709958	0.675274
619	C	0.433419	0.733416	0.710715
620	C	0.470182	0.75141	0.710362
621	C	0.489033	0.74673	0.675489
622	C	0.470218	0.723568	0.973642
623	C	0.433731	0.705296	0.97375
624	H	0.482982	0.719338	0.947973
625	H	0.421045	0.688686	0.947697
626	H	0.483293	0.768236	0.73606
627	N	0.415085	0.737742	0.746725
628	O	0.421938	0.768666	0.749856
629	O	0.533661	0.71318	0.749543
630	O	0.42191	0.728694	0.783627
631	C	0.788816	0.249124	0.306972
632	C	0.807089	0.230908	0.307079
633	H	0.793043	0.266116	0.2813
634	H	0.823698	0.234831	0.281025
635	C	0.706384	0.277592	0.306546
636	C	0.724914	0.259639	0.306949
637	H	0.737156	0.322369	0.069108
638	H	0.690076	0.273813	0.280178
639	H	0.721105	0.242877	0.281132
640	H	0.744158	0.217539	0.069399
641	N	0.775011	0.292061	0.080667
642	N	0.774654	0.179828	0.080064
643	O	0.759402	0.283791	0.117803
644	O	0.743731	0.155756	0.083199
645	O	0.799221	0.32297	0.082857
646	O	0.783705	0.195704	0.116964
647	C	0.763262	0.042171	0.306977
648	C	0.781479	0.078657	0.307084
649	H	0.74627	0.029406	0.281306
650	H	0.777556	0.091344	0.281031
651	C	0.734794	0.43127	0.306547
652	C	0.752747	0.467754	0.306949
653	H	0.690026	0.417265	0.069116
654	H	0.738571	0.418739	0.280177
655	H	0.769508	0.480708	0.28113
656	H	0.794852	0.029096	0.069399
657	N	0.720332	0.485424	0.080676
658	N	0.832565	0.097304	0.080065
659	O	0.728605	0.478087	0.11781
660	O	0.856636	0.090451	0.083197
661	O	0.689425	0.978728	0.082872
662	O	0.816689	0.090479	0.116966
663	C	0.970219	0.223568	0.306976
664	C	0.933732	0.205297	0.307083
665	H	0.982983	0.219339	0.281307
666	H	0.921045	0.188685	0.281031
667	C	0.581117	0.306	0.306542
668	C	0.544635	0.287469	0.306945
669	H	0.595127	0.275244	0.069116
670	H	0.593649	0.322304	0.280171
671	H	0.531681	0.291273	0.281124
672	H	0.983293	0.268238	0.069394
673	N	0.526964	0.23739	0.080677
674	N	0.915086	0.237742	0.080059
675	O	0.534302	0.253002	0.117809
676	O	0.921938	0.268666	0.083188
677	O	0.92191	0.228694	0.116962
678	C	0.637177	0.319959	0.340694
679	C	0.656015	0.356624	0.34071
680	C	0.692693	0.375214	0.340697
681	C	0.710518	0.356372	0.34071
682	C	0.692432	0.319697	0.340694
683	C	0.655764	0.301868	0.340704
684	H	0.737079	0.369564	0.340916
685	H	0.642396	0.275311	0.340912
686	H	0.642826	0.369992	0.340916
687	C	0.877726	0.190812	0.340872
688	C	0.859656	0.154135	0.340683
689	C	0.822998	0.134663	0.340875
690	C	0.804389	0.152732	0.340673
691	C	0.821577	0.189392	0.340872
692	C	0.858255	0.208001	0.34067
693	H	0.777845	0.138946	0.340832
694	H	0.871013	0.234545	0.340828
695	H	0.873444	0.141377	0.340832
696	C	0.80243	0.207297	0.341939
697	C	0.778977	0.202483	0.377384
698	C	0.76098	0.221252	0.37703
699	C	0.765659	0.24478	0.342158
700	C	0.788816	0.249124	0.640304
701	C	0.807089	0.230908	0.640412
702	H	0.793043	0.266116	0.614632
703	H	0.823698	0.234831	0.614359
704	C	0.747723	0.263868	0.342673
705	C	0.752025	0.287119	0.378151
706	C	0.733832	0.305678	0.376724
707	C	0.71077	0.301096	0.341276
708	C	0.706384	0.277592	0.63988
709	C	0.724914	0.259639	0.64028
710	H	0.737156	0.322369	0.40244
711	H	0.690076	0.273813	0.613511
712	H	0.721105	0.242877	0.614464
713	H	0.744158	0.217539	0.402732
714	N	0.775011	0.292061	0.414
715	N	0.774654	0.179828	0.413397
716	O	0.759402	0.283791	0.451137
717	O	0.743731	0.155756	0.416531
718	O	0.799221	0.32297	0.416191
719	O	0.783705	0.195704	0.450296
720	C	0.805093	0.097611	0.341943
721	C	0.809907	0.078971	0.377387
722	C	0.791139	0.042207	0.377034
723	C	0.767609	0.023356	0.342161
724	C	0.763262	0.042171	0.640311
725	C	0.781479	0.078657	0.640418
726	H	0.74627	0.029406	0.614639
727	H	0.777556	0.091344	0.614363
728	C	0.748519	0.486332	0.342676
729	C	0.725273	0.467384	0.378158
730	C	0.706712	0.43063	0.376731
731	C	0.711292	0.412151	0.341279
732	C	0.734794	0.43127	0.63988
733	C	0.752747	0.467754	0.640284
734	H	0.690026	0.417265	0.40245
735	H	0.738571	0.418739	0.613511
736	H	0.769508	0.480708	0.614464
737	H	0.794852	0.029096	0.402732
738	N	0.720332	0.485424	0.41401
739	N	0.832565	0.097304	0.413397
740	O	0.728605	0.478087	0.451144
741	O	0.856636	0.090451	0.416531
742	O	0.689425	0.978728	0.416205
743	O	0.816689	0.090479	0.450299
744	C	0.914779	0.20996	0.341939
745	C	0.933418	0.233417	0.377384
746	C	0.970182	0.251411	0.377027
747	C	0.989034	0.24673	0.342158
748	C	0.970219	0.223568	0.640307
749	C	0.933732	0.205297	0.640415
750	H	0.982983	0.219339	0.614639
751	H	0.921045	0.188685	0.614363
752	C	0.526057	0.264664	0.342673
753	C	0.545006	0.26037	0.378155
754	C	0.581758	0.278561	0.376727
755	C	0.600239	0.30162	0.341276
756	C	0.581117	0.306	0.639876
757	C	0.544635	0.287469	0.640277
758	H	0.595127	0.275244	0.40245
759	H	0.593649	0.322304	0.613504
760	H	0.531681	0.291273	0.614457
761	H	0.983293	0.268238	0.402726
762	N	0.526964	0.23739	0.41401
763	N	0.915086	0.237742	0.41339
764	O	0.534302	0.253002	0.451141
765	O	0.921938	0.268666	0.416521
766	O	0.92191	0.228694	0.450296
767	C	0.637177	0.319959	0.674025
768	C	0.656015	0.356624	0.674042
769	C	0.692693	0.375214	0.674028
770	C	0.710518	0.356372	0.674042
771	C	0.692432	0.319697	0.674025
772	C	0.655764	0.301868	0.674035
773	H	0.737079	0.369564	0.67425
774	H	0.642396	0.275311	0.674247
775	H	0.642826	0.369992	0.67425
776	C	0.877726	0.190812	0.674207
777	C	0.859656	0.154135	0.674018
778	C	0.822998	0.134663	0.674207
779	C	0.804389	0.152732	0.674005
780	C	0.821577	0.189392	0.674203
781	C	0.858255	0.208001	0.674005
782	H	0.777845	0.138946	0.674166
783	H	0.871013	0.234545	0.67416
784	H	0.873444	0.141377	0.674166
785	C	0.80243	0.207297	0.675274
786	C	0.778977	0.202483	0.710718
787	C	0.76098	0.221252	0.710365
788	C	0.765659	0.24478	0.675489
789	C	0.788816	0.249124	0.973639
790	C	0.807089	0.230908	0.973746
791	H	0.793043	0.266116	0.947967
792	H	0.823698	0.234831	0.947691
793	C	0.747723	0.263868	0.676004
794	C	0.752025	0.287119	0.711483
795	C	0.733832	0.305678	0.710059
796	C	0.71077	0.301096	0.674607
797	C	0.706384	0.277592	0.973211
798	C	0.724914	0.259639	0.973615
799	H	0.737156	0.322369	0.735774
800	H	0.690076	0.273813	0.946846
801	H	0.721105	0.242877	0.947798
802	H	0.744158	0.217539	0.736064
803	N	0.775011	0.292061	0.747334
804	N	0.774654	0.179828	0.746732
805	O	0.759402	0.283791	0.784469
806	O	0.743731	0.155756	0.749866
807	O	0.799221	0.32297	0.749523
808	O	0.783705	0.195704	0.783631
809	C	0.805093	0.097611	0.675277
810	C	0.809907	0.078971	0.710718
811	C	0.791139	0.042207	0.710365
812	C	0.767609	0.023356	0.675493
813	C	0.763262	0.042171	0.973642
814	C	0.781479	0.078657	0.97375
815	H	0.74627	0.029406	0.947973
816	H	0.777556	0.091344	0.947697
817	C	0.748519	0.486332	0.676008
818	C	0.725273	0.467384	0.711489
819	C	0.706712	0.43063	0.710062
820	C	0.711292	0.412151	0.674611
821	C	0.734794	0.43127	0.973215
822	C	0.752747	0.467754	0.973615
823	H	0.690026	0.417265	0.735781
824	H	0.738571	0.418739	0.946842
825	H	0.769508	0.480708	0.947795
826	H	0.794852	0.029096	0.736064
827	N	0.720332	0.485424	0.747341
828	N	0.832565	0.097304	0.746732
829	O	0.728605	0.478087	0.784476
830	O	0.856636	0.090451	0.749863
831	O	0.689425	0.978728	0.749539
832	O	0.816689	0.090479	0.783634
833	C	0.914779	0.20996	0.675274
834	C	0.933418	0.233417	0.710715
835	C	0.970182	0.251411	0.710362
836	C	0.989034	0.24673	0.675489
837	C	0.970219	0.223568	0.973642
838	C	0.933732	0.205297	0.97375
839	H	0.982983	0.219339	0.947973
840	H	0.921045	0.188685	0.947697
841	C	0.526057	0.264664	0.676008
842	C	0.545006	0.26037	0.711489
843	C	0.581758	0.278561	0.710062
844	C	0.600239	0.30162	0.674607
845	C	0.581117	0.306	0.973208
846	C	0.544635	0.287469	0.973612
847	H	0.595127	0.275244	0.735781
848	H	0.593649	0.322304	0.946836
849	H	0.531681	0.291273	0.947792
850	H	0.983293	0.268238	0.73606
851	N	0.526964	0.23739	0.747344
852	N	0.915086	0.237742	0.746725
853	O	0.534302	0.253002	0.784476
854	O	0.921938	0.268666	0.749856
855	O	0.92191	0.228694	0.783627
856	C	0.788818	0.749125	0.306972
857	C	0.807088	0.730907	0.307079
858	H	0.793043	0.766113	0.2813
859	H	0.823697	0.734831	0.281025
860	C	0.706386	0.777592	0.306546
861	C	0.724916	0.759639	0.306949
862	H	0.737155	0.822369	0.069108
863	H	0.690075	0.773813	0.280178
864	H	0.721106	0.742876	0.281132
865	H	0.744159	0.717539	0.069399
866	N	0.77501	0.792062	0.080667
867	N	0.774655	0.679827	0.080064
868	O	0.759403	0.783791	0.117803
869	O	0.743729	0.655755	0.083199
870	O	0.799221	0.822968	0.082857
871	O	0.783706	0.695704	0.116964
872	C	0.763263	0.54217	0.306977
873	C	0.781479	0.578657	0.307084
874	H	0.746271	0.529406	0.281306
875	H	0.777555	0.591346	0.281031
876	C	0.734796	0.931271	0.306547
877	C	0.752748	0.967754	0.306949
878	H	0.690023	0.917263	0.069116
879	H	0.73857	0.91874	0.280177
880	H	0.769508	0.980705	0.28113
881	H	0.794853	0.529095	0.069399
882	N	0.720334	0.985425	0.080676
883	N	0.832564	0.597304	0.080065
884	O	0.728606	0.978088	0.11781
885	O	0.856637	0.590451	0.083197
886	O	0.689427	0.47873	0.082872
887	O	0.816691	0.59048	0.116966
888	C	0.970218	0.723568	0.306976
889	C	0.93373	0.705296	0.307083
890	H	0.982982	0.719338	0.281307
891	H	0.921044	0.688686	0.281031
892	C	0.581119	0.806	0.306542
893	C	0.544635	0.787469	0.306945
894	H	0.595125	0.775241	0.069116
895	H	0.593649	0.822304	0.280171
896	H	0.531682	0.791274	0.281124
897	H	0.983293	0.768236	0.069394
898	N	0.526964	0.737389	0.080677
899	N	0.915085	0.737742	0.080059
900	O	0.534302	0.753002	0.117809
901	O	0.921937	0.768666	0.083188
902	O	0.921909	0.728694	0.116962
903	C	0.637175	0.819956	0.340694
904	C	0.656016	0.856624	0.34071
905	C	0.692693	0.875212	0.340697
906	C	0.710519	0.856373	0.34071
907	C	0.692433	0.819697	0.340694
908	C	0.655766	0.801869	0.340704
909	H	0.737077	0.869562	0.340916
910	H	0.642397	0.775311	0.340912
911	H	0.642826	0.869992	0.340916
912	C	0.877726	0.690811	0.340872
913	C	0.859658	0.654135	0.340683
914	C	0.822997	0.634664	0.340875
915	C	0.804387	0.652731	0.340673
916	C	0.821578	0.689393	0.340872
917	C	0.858256	0.708002	0.34067
918	H	0.777844	0.638945	0.340832
919	H	0.871011	0.734543	0.340828
920	H	0.873443	0.641376	0.340832
921	C	0.802431	0.707297	0.341939
922	C	0.778976	0.702484	0.377384
923	C	0.760981	0.721251	0.37703
924	C	0.76566	0.744781	0.342158
925	C	0.788818	0.749125	0.640304
926	C	0.807088	0.730907	0.640412
927	H	0.793043	0.766113	0.614632
928	H	0.823697	0.734831	0.614359
929	C	0.747725	0.763869	0.342673
930	C	0.752024	0.787119	0.378151
931	C	0.733833	0.805678	0.376724
932	C	0.710769	0.801096	0.341276
933	C	0.706386	0.777592	0.63988
934	C	0.724916	0.759639	0.64028
935	H	0.737155	0.822369	0.40244
936	H	0.690075	0.773813	0.613511
937	H	0.721106	0.742876	0.614464
938	H	0.744159	0.717539	0.402732
939	N	0.77501	0.792062	0.414
940	N	0.774655	0.679827	0.413397
941	O	0.759403	0.783791	0.451137
942	O	0.743729	0.655755	0.416531
943	O	0.799221	0.822968	0.416191
944	O	0.783706	0.695704	0.450296
945	C	0.805092	0.59761	0.341943
946	C	0.809908	0.57897	0.377387
947	C	0.791138	0.542207	0.377034
948	C	0.767608	0.523357	0.342161
949	C	0.763263	0.54217	0.640311
950	C	0.781479	0.578657	0.640418
951	H	0.746271	0.529406	0.614639
952	H	0.777555	0.591346	0.614363
953	C	0.748518	0.986332	0.342676
954	C	0.725273	0.967381	0.378158
955	C	0.706713	0.930631	0.376731
956	C	0.711292	0.912149	0.341279
957	C	0.734796	0.931271	0.63988
958	C	0.752748	0.967754	0.640284
959	H	0.690023	0.917263	0.40245
960	H	0.73857	0.91874	0.613511
961	H	0.769508	0.980705	0.614464
962	H	0.794853	0.529095	0.402732
963	N	0.720334	0.985425	0.41401
964	N	0.832564	0.597304	0.413397
965	O	0.728606	0.978088	0.451144
966	O	0.856637	0.590451	0.416531
967	O	0.689427	0.47873	0.416205
968	O	0.816691	0.59048	0.450299
969	C	0.914777	0.709958	0.341939
970	C	0.933419	0.733416	0.377384
971	C	0.970183	0.75141	0.377027
972	C	0.989033	0.74673	0.342158
973	C	0.970218	0.723568	0.640307
974	C	0.93373	0.705296	0.640415
975	H	0.982982	0.719338	0.614639
976	H	0.921044	0.688686	0.614363
977	C	0.526057	0.764664	0.342673
978	C	0.545007	0.76037	0.378155
979	C	0.581758	0.778561	0.376727
980	C	0.600239	0.80162	0.341276
981	C	0.581119	0.806	0.639876
982	C	0.544635	0.787469	0.640277
983	H	0.595125	0.775241	0.40245
984	H	0.593649	0.822304	0.613504
985	H	0.531682	0.791274	0.614457
986	H	0.983293	0.768236	0.402726
987	N	0.526964	0.737389	0.41401
988	N	0.915085	0.737742	0.41339
989	O	0.534302	0.753002	0.451141
990	O	0.921937	0.768666	0.416521
991	O	0.921909	0.728694	0.450296
992	C	0.637175	0.819956	0.674025
993	C	0.656016	0.856624	0.674042
994	C	0.692693	0.875212	0.674028
995	C	0.710519	0.856373	0.674042
996	C	0.692433	0.819697	0.674025
997	C	0.655766	0.801869	0.674035
998	H	0.737077	0.869562	0.67425
999	H	0.642397	0.775311	0.674247
1000	H	0.642826	0.869992	0.67425
1001	C	0.877726	0.690811	0.674207
1002	C	0.859658	0.654135	0.674018
1003	C	0.822997	0.634664	0.674207
1004	C	0.804387	0.652731	0.674005
1005	C	0.821578	0.689393	0.674203
1006	C	0.858256	0.708002	0.674005
1007	H	0.777844	0.638945	0.674166
1008	H	0.871011	0.734543	0.67416
1009	H	0.873443	0.641376	0.674166
1010	C	0.802431	0.707297	0.675274
1011	C	0.778976	0.702484	0.710718
1012	C	0.760981	0.721251	0.710365
1013	C	0.76566	0.744781	0.675489
1014	C	0.788818	0.749125	0.973639
1015	C	0.807088	0.730907	0.973746
1016	H	0.793043	0.766113	0.947967
1017	H	0.823697	0.734831	0.947691
1018	C	0.747725	0.763869	0.676004
1019	C	0.752024	0.787119	0.711483
1020	C	0.733833	0.805678	0.710059
1021	C	0.710769	0.801096	0.674607
1022	C	0.706386	0.777592	0.973211
1023	C	0.724916	0.759639	0.973615
1024	H	0.737155	0.822369	0.735774
1025	H	0.690075	0.773813	0.946846
1026	H	0.721106	0.742876	0.947798
1027	H	0.744159	0.717539	0.736064
1028	N	0.77501	0.792062	0.747334
1029	N	0.774655	0.679827	0.746732
1030	O	0.759403	0.783791	0.784469
1031	O	0.743729	0.655755	0.749866
1032	O	0.799221	0.822968	0.749523
1033	O	0.783706	0.695704	0.783631
1034	C	0.805092	0.59761	0.675277
1035	C	0.809908	0.57897	0.710718
1036	C	0.791138	0.542207	0.710365
1037	C	0.767608	0.523357	0.675493
1038	C	0.763263	0.54217	0.973642
1039	C	0.781479	0.578657	0.97375
1040	H	0.746271	0.529406	0.947973
1041	H	0.777555	0.591346	0.947697
1042	C	0.748518	0.986332	0.676008
1043	C	0.725273	0.967381	0.711489
1044	C	0.706713	0.930631	0.710062
1045	C	0.711292	0.912149	0.674611
1046	C	0.734796	0.931271	0.973215
1047	C	0.752748	0.967754	0.973615
1048	H	0.690023	0.917263	0.735781
1049	H	0.73857	0.91874	0.946842
1050	H	0.769508	0.980705	0.947795
1051	H	0.794853	0.529095	0.736064
1052	N	0.720334	0.985425	0.747341
1053	N	0.832564	0.597304	0.746732
1054	O	0.728606	0.978088	0.784476
1055	O	0.856637	0.590451	0.749863
1056	O	0.689427	0.47873	0.749539
1057	O	0.816691	0.59048	0.783634
1058	C	0.914777	0.709958	0.675274
1059	C	0.933419	0.733416	0.710715
1060	C	0.970183	0.75141	0.710362
1061	C	0.989033	0.74673	0.675489
1062	C	0.970218	0.723568	0.973642
1063	C	0.93373	0.705296	0.97375
1064	H	0.982982	0.719338	0.947973
1065	H	0.921044	0.688686	0.947697
1066	C	0.526057	0.764664	0.676008
1067	C	0.545007	0.76037	0.711489
1068	C	0.581758	0.778561	0.710062
1069	C	0.600239	0.80162	0.674607
1070	C	0.581119	0.806	0.973208
1071	C	0.544635	0.787469	0.973612
1072	H	0.595125	0.775241	0.735781
1073	H	0.593649	0.822304	0.946836
1074	H	0.531682	0.791274	0.947792
1075	H	0.983293	0.768236	0.73606
1076	N	0.526964	0.737389	0.747344
1077	N	0.915085	0.737742	0.746725
1078	O	0.534302	0.753002	0.784476
1079	O	0.921937	0.768666	0.749856
1080	O	0.921909	0.728694	0.783627
