data_C504H504N144_2018-02-15_10:44:56
#******************************************
#
# CIF file created by Zeo++
# Zeo++ is an open source package to
# analyze microporous materials
#
#*******************************************

_cell_length_a		45.7023   
_cell_length_b		45.7023   
_cell_length_c		29.329   
_cell_angle_alpha		90   
_cell_angle_beta		90   
_cell_angle_gamma		120   

_symmetry_space_group_name_H-M		'P1'
_symmetry_Int_Tables_number		1
_symmetry_cell_setting		Monoclinic

loop_
_symmetry_equiv_pos_as_xyz
'+x,+y,+z'

loop_
_atom_site_label
_atom_site_type_symbol
_atom_site_fract_x
_atom_site_fract_y
_atom_site_fract_z
1	C	0.191329	0.378083	0.011043
2	N	0.158624	0.352029	0.010958
3	C	0.15051	0.318964	0.011039
4	N	0.176563	0.312312	0.010954
5	C	0.209629	0.337264	0.011039
6	N	0.216282	0.36997	0.010958
7	C	0.236796	0.330756	0.009945
8	C	0.19784	0.41176	0.009952
9	C	0.116834	0.291798	0.009938
10	H	0.113926	0.268238	0.008833
11	H	0.17719	0.414668	0.008837
12	H	0.260355	0.351405	0.008844
13	C	0.250917	0.281717	0.010681
14	C	0.231889	0.246565	0.021636
15	C	0.247978	0.22643	0.023901
16	C	0.229095	0.190425	0.039548
17	H	0.204319	0.182146	0.054088
18	H	0.243291	0.186445	0.066382
19	H	0.225334	0.173843	0.010709
20	C	0.194585	0.230399	0.030674
21	H	0.183579	0.246282	0.023753
22	H	0.189478	0.222971	0.066441
23	H	0.180854	0.208123	0.00911
24	N	0.23392	0.299588	0.012091
25	C	0.246878	0.474919	0.010681
26	C	0.252677	0.031846	0.335382
27	C	0.232587	0.495632	0.332906
28	C	0.236458	0.052967	0.326609
29	H	0.252214	0.079782	0.334118
30	H	0.214	0.044119	0.347891
31	H	0.229306	0.051016	0.290765
32	C	0.19669	0.478562	0.316813
33	H	0.192802	0.46026	0.290209
34	H	0.188641	0.495104	0.301767
35	H	0.179893	0.465907	0.345518
36	N	0.229008	0.440052	0.012098
37	C	0.053676	0.277677	0.010678
38	C	0.037552	0.296705	0.021638
39	C	0.032962	0.242672	0.332908
40	C	0.058691	0.33401	0.030679
41	H	0.085579	0.345016	0.023757
42	H	0.056369	0.339113	0.066447
43	H	0.050145	0.347742	0.00912
44	C	0.05003	0.223842	0.316822
45	H	0.068329	0.238252	0.290214
46	H	0.033489	0.199249	0.301784
47	H	0.062688	0.219705	0.345528
48	N	0.088542	0.294674	0.012089
49	C	0.191329	0.378083	0.344376
50	N	0.158624	0.352029	0.34429
51	C	0.15051	0.318964	0.344372
52	N	0.176563	0.312312	0.344287
53	C	0.209629	0.337264	0.344372
54	N	0.216282	0.36997	0.34429
55	C	0.236796	0.330756	0.343278
56	C	0.19784	0.41176	0.343285
57	C	0.116834	0.291798	0.343271
58	H	0.113926	0.268238	0.342166
59	H	0.17719	0.414668	0.34217
60	H	0.260355	0.351405	0.342176
61	C	0.250917	0.281717	0.344014
62	C	0.231889	0.246565	0.354969
63	C	0.247978	0.22643	0.357233
64	C	0.229095	0.190425	0.372883
65	H	0.204319	0.182146	0.387422
66	H	0.243291	0.186445	0.399717
67	H	0.225334	0.173843	0.344041
68	C	0.194585	0.230399	0.364008
69	H	0.183579	0.246282	0.357087
70	H	0.189478	0.222971	0.399775
71	H	0.180854	0.208123	0.342442
72	N	0.23392	0.299588	0.345426
73	C	0.246878	0.474919	0.344014
74	C	0.252677	0.031846	0.668716
75	C	0.232587	0.495632	0.666238
76	C	0.236458	0.052967	0.659944
77	H	0.252214	0.079782	0.667451
78	H	0.214	0.044119	0.681223
79	H	0.229306	0.051016	0.624099
80	C	0.19669	0.478562	0.650148
81	H	0.192802	0.46026	0.623543
82	H	0.188641	0.495104	0.635101
83	H	0.179893	0.465907	0.67885
84	N	0.229008	0.440052	0.345433
85	C	0.053676	0.277677	0.344011
86	C	0.037552	0.296705	0.354973
87	C	0.032962	0.242672	0.666241
88	C	0.058691	0.33401	0.364011
89	H	0.085579	0.345016	0.35709
90	H	0.056369	0.339113	0.399781
91	H	0.050145	0.347742	0.342453
92	C	0.05003	0.223842	0.650155
93	H	0.068329	0.238252	0.623546
94	H	0.033489	0.199249	0.635118
95	H	0.062688	0.219705	0.67886
96	N	0.088542	0.294674	0.345422
97	C	0.191329	0.378083	0.677708
98	N	0.158624	0.352029	0.677622
99	C	0.15051	0.318964	0.677708
100	N	0.176563	0.312312	0.677619
101	C	0.209629	0.337264	0.677704
102	N	0.216282	0.36997	0.677626
103	C	0.236796	0.330756	0.67661
104	C	0.19784	0.41176	0.67662
105	C	0.116834	0.291798	0.676606
106	H	0.113926	0.268238	0.675498
107	H	0.17719	0.414668	0.675502
108	H	0.260355	0.351405	0.675508
109	C	0.250917	0.281717	0.677346
110	C	0.231889	0.246565	0.688305
111	C	0.247978	0.22643	0.690569
112	C	0.229095	0.190425	0.706215
113	H	0.204319	0.182146	0.720757
114	H	0.243291	0.186445	0.733049
115	H	0.225334	0.173843	0.677373
116	C	0.194585	0.230399	0.69734
117	H	0.183579	0.246282	0.690418
118	H	0.189478	0.222971	0.733107
119	H	0.180854	0.208123	0.675778
120	N	0.23392	0.299588	0.678758
121	C	0.246878	0.474919	0.67735
122	C	0.252677	0.031846	0.002048
123	C	0.232587	0.495632	0.999573
124	C	0.236458	0.052967	0.993276
125	H	0.252214	0.079782	0.000783
126	H	0.214	0.044119	0.014557
127	H	0.229306	0.051016	0.957434
128	C	0.19669	0.478562	0.98348
129	H	0.192802	0.46026	0.956878
130	H	0.188641	0.495104	0.968433
131	H	0.179893	0.465907	0.012184
132	N	0.229008	0.440052	0.678765
133	C	0.053676	0.277677	0.677346
134	C	0.037552	0.296705	0.688305
135	C	0.032962	0.242672	0.999576
136	C	0.058691	0.33401	0.697347
137	H	0.085579	0.345016	0.690425
138	H	0.056369	0.339113	0.733113
139	H	0.050145	0.347742	0.675785
140	C	0.05003	0.223842	0.98349
141	H	0.068329	0.238252	0.956882
142	H	0.033489	0.199249	0.96845
143	H	0.062688	0.219705	0.012194
144	N	0.088542	0.294674	0.678758
145	C	0.191329	0.878084	0.011043
146	N	0.158625	0.85203	0.010958
147	C	0.15051	0.818964	0.011039
148	N	0.176563	0.812312	0.010954
149	C	0.209628	0.837264	0.011039
150	N	0.21628	0.869968	0.010958
151	C	0.236795	0.830753	0.009945
152	C	0.19784	0.91176	0.009952
153	C	0.116833	0.791796	0.009938
154	H	0.113926	0.768238	0.008833
155	H	0.17719	0.914668	0.008837
156	H	0.260355	0.851406	0.008844
157	C	0.250917	0.781718	0.010681
158	C	0.231888	0.746566	0.021636
159	C	0.247977	0.726429	0.023901
160	C	0.229094	0.690425	0.039548
161	H	0.204319	0.682146	0.054088
162	H	0.24329	0.686443	0.066382
163	H	0.225333	0.673843	0.010709
164	C	0.194584	0.730398	0.030674
165	H	0.183579	0.746283	0.023753
166	H	0.189477	0.72297	0.066441
167	H	0.180853	0.708121	0.00911
168	N	0.233919	0.799586	0.012091
169	C	0.246876	0.974917	0.010681
170	C	0.252677	0.531845	0.335382
171	C	0.232584	0.99563	0.332906
172	C	0.236457	0.552967	0.326609
173	H	0.252214	0.579782	0.334118
174	H	0.214	0.544119	0.347891
175	H	0.229304	0.551014	0.290765
176	C	0.196691	0.978563	0.316813
177	H	0.192802	0.96026	0.290209
178	H	0.18864	0.995102	0.301767
179	H	0.179893	0.965907	0.345518
180	N	0.229009	0.940053	0.012098
181	C	0.053674	0.777675	0.010678
182	C	0.037552	0.796705	0.021638
183	C	0.032963	0.742672	0.332908
184	C	0.058691	0.834008	0.030679
185	H	0.085577	0.845013	0.023757
186	H	0.056369	0.839114	0.066447
187	H	0.050144	0.847739	0.00912
188	C	0.05003	0.723842	0.316822
189	H	0.068328	0.738251	0.290214
190	H	0.033488	0.699248	0.301784
191	H	0.062688	0.719706	0.345528
192	N	0.088542	0.794674	0.012089
193	C	0.191329	0.878084	0.344376
194	N	0.158625	0.85203	0.34429
195	C	0.15051	0.818964	0.344372
196	N	0.176563	0.812312	0.344287
197	C	0.209628	0.837264	0.344372
198	N	0.21628	0.869968	0.34429
199	C	0.236795	0.830753	0.343278
200	C	0.19784	0.91176	0.343285
201	C	0.116833	0.791796	0.343271
202	H	0.113926	0.768238	0.342166
203	H	0.17719	0.914668	0.34217
204	H	0.260355	0.851406	0.342176
205	C	0.250917	0.781718	0.344014
206	C	0.231888	0.746566	0.354969
207	C	0.247977	0.726429	0.357233
208	C	0.229094	0.690425	0.372883
209	H	0.204319	0.682146	0.387422
210	H	0.24329	0.686443	0.399717
211	H	0.225333	0.673843	0.344041
212	C	0.194584	0.730398	0.364008
213	H	0.183579	0.746283	0.357087
214	H	0.189477	0.72297	0.399775
215	H	0.180853	0.708121	0.342442
216	N	0.233919	0.799586	0.345426
217	C	0.246876	0.974917	0.344014
218	C	0.252677	0.531845	0.668716
219	C	0.232584	0.99563	0.666238
220	C	0.236457	0.552967	0.659944
221	H	0.252214	0.579782	0.667451
222	H	0.214	0.544119	0.681223
223	H	0.229304	0.551014	0.624099
224	C	0.196691	0.978563	0.650148
225	H	0.192802	0.96026	0.623543
226	H	0.18864	0.995102	0.635101
227	H	0.179893	0.965907	0.67885
228	N	0.229009	0.940053	0.345433
229	C	0.053674	0.777675	0.344011
230	C	0.037552	0.796705	0.354973
231	C	0.032963	0.742672	0.666241
232	C	0.058691	0.834008	0.364011
233	H	0.085577	0.845013	0.35709
234	H	0.056369	0.839114	0.399781
235	H	0.050144	0.847739	0.342453
236	C	0.05003	0.723842	0.650155
237	H	0.068328	0.738251	0.623546
238	H	0.033488	0.699248	0.635118
239	H	0.062688	0.719706	0.67886
240	N	0.088542	0.794674	0.345422
241	C	0.191329	0.878084	0.677708
242	N	0.158625	0.85203	0.677622
243	C	0.15051	0.818964	0.677708
244	N	0.176563	0.812312	0.677619
245	C	0.209628	0.837264	0.677704
246	N	0.21628	0.869968	0.677626
247	C	0.236795	0.830753	0.67661
248	C	0.19784	0.91176	0.67662
249	C	0.116833	0.791796	0.676606
250	H	0.113926	0.768238	0.675498
251	H	0.17719	0.914668	0.675502
252	H	0.260355	0.851406	0.675508
253	C	0.250917	0.781718	0.677346
254	C	0.231888	0.746566	0.688305
255	C	0.247977	0.726429	0.690569
256	C	0.229094	0.690425	0.706215
257	H	0.204319	0.682146	0.720757
258	H	0.24329	0.686443	0.733049
259	H	0.225333	0.673843	0.677373
260	C	0.194584	0.730398	0.69734
261	H	0.183579	0.746283	0.690418
262	H	0.189477	0.72297	0.733107
263	H	0.180853	0.708121	0.675778
264	N	0.233919	0.799586	0.678758
265	C	0.246876	0.974917	0.67735
266	C	0.252677	0.531845	0.002048
267	C	0.232584	0.99563	0.999573
268	C	0.236457	0.552967	0.993276
269	H	0.252214	0.579782	0.000783
270	H	0.214	0.544119	0.014557
271	H	0.229304	0.551014	0.957434
272	C	0.196691	0.978563	0.98348
273	H	0.192802	0.96026	0.956878
274	H	0.18864	0.995102	0.968433
275	H	0.179893	0.965907	0.012184
276	N	0.229009	0.940053	0.678765
277	C	0.053674	0.777675	0.677346
278	C	0.037552	0.796705	0.688305
279	C	0.032963	0.742672	0.999576
280	C	0.058691	0.834008	0.697347
281	H	0.085577	0.845013	0.690425
282	H	0.056369	0.839114	0.733113
283	H	0.050144	0.847739	0.675785
284	C	0.05003	0.723842	0.98349
285	H	0.068328	0.738251	0.956882
286	H	0.033488	0.699248	0.96845
287	H	0.062688	0.719706	0.012194
288	N	0.088542	0.794674	0.678758
289	C	0.34313	0.144838	0.01275
290	N	0.375786	0.170988	0.012842
291	C	0.383757	0.204012	0.012765
292	N	0.357608	0.210519	0.012842
293	C	0.324583	0.185466	0.012754
294	N	0.318077	0.152809	0.012833
295	C	0.29732	0.191828	0.013838
296	C	0.336767	0.111212	0.013841
297	C	0.417383	0.231275	0.013855
298	H	0.357482	0.108413	0.015017
299	H	0.273805	0.171115	0.015002
300	C	0.283019	0.240764	0.346316
301	C	0.302046	0.275919	0.335392
302	C	0.285923	0.29601	0.332914
303	C	0.339389	0.29214	0.326629
304	H	0.350445	0.276381	0.334137
305	H	0.352995	0.314593	0.347915
306	H	0.344595	0.299297	0.290787
307	C	0.304752	0.331908	0.316831
308	H	0.290344	0.335799	0.290223
309	H	0.329346	0.33996	0.301794
310	H	0.308889	0.348702	0.345538
311	N	0.300059	0.222936	0.344969
312	C	0.28203	0.491044	0.021645
313	C	0.302164	0.027267	0.023908
314	C	0.287832	0.047975	0.346312
315	C	0.338168	0.04439	0.039561
316	H	0.346447	0.027894	0.054103
317	H	0.342145	0.062566	0.066394
318	H	0.354754	0.057212	0.010722
319	C	0.298195	0.469906	0.030692
320	H	0.282312	0.443016	0.023774
321	H	0.30562	0.472228	0.066461
322	H	0.320472	0.478449	0.009134
323	N	0.30566	0.082843	0.344969
324	C	0.34313	0.144838	0.346084
325	N	0.375786	0.170988	0.346176
326	C	0.383757	0.204012	0.346097
327	N	0.357608	0.210519	0.346176
328	C	0.324583	0.185466	0.346087
329	N	0.318077	0.152809	0.346166
330	C	0.29732	0.191828	0.347171
331	C	0.336767	0.111212	0.347175
332	C	0.417383	0.231275	0.347189
333	H	0.357482	0.108413	0.348351
334	H	0.273805	0.171115	0.348334
335	C	0.283019	0.240764	0.679648
336	C	0.302046	0.275919	0.668727
337	C	0.285923	0.29601	0.666248
338	C	0.339389	0.29214	0.659961
339	H	0.350445	0.276381	0.667469
340	H	0.352995	0.314593	0.68125
341	H	0.344595	0.299297	0.624122
342	C	0.304752	0.331908	0.650165
343	H	0.290344	0.335799	0.623556
344	H	0.329346	0.33996	0.635129
345	H	0.308889	0.348702	0.67887
346	N	0.300059	0.222936	0.678304
347	C	0.28203	0.491044	0.354979
348	C	0.302164	0.027267	0.35724
349	C	0.287832	0.047975	0.679648
350	C	0.338168	0.04439	0.372893
351	H	0.346447	0.027894	0.387439
352	H	0.342145	0.062566	0.399727
353	H	0.354754	0.057212	0.344055
354	C	0.298195	0.469906	0.364025
355	H	0.282312	0.443016	0.357107
356	H	0.30562	0.472228	0.399795
357	H	0.320472	0.478449	0.342466
358	N	0.30566	0.082843	0.678301
359	C	0.34313	0.144838	0.679419
360	N	0.375786	0.170988	0.679508
361	C	0.383757	0.204012	0.679433
362	N	0.357608	0.210519	0.679508
363	C	0.324583	0.185466	0.679423
364	N	0.318077	0.152809	0.679501
365	C	0.29732	0.191828	0.680507
366	C	0.336767	0.111212	0.680507
367	C	0.417383	0.231275	0.680524
368	H	0.357482	0.108413	0.681683
369	H	0.273805	0.171115	0.681669
370	C	0.283019	0.240764	0.012981
371	C	0.302046	0.275919	0.002059
372	C	0.285923	0.29601	0.99958
373	C	0.339389	0.29214	0.993296
374	H	0.350445	0.276381	0.000804
375	H	0.352995	0.314593	0.014583
376	H	0.344595	0.299297	0.957454
377	C	0.304752	0.331908	0.983497
378	H	0.290344	0.335799	0.956888
379	H	0.329346	0.33996	0.96846
380	H	0.308889	0.348702	0.012205
381	N	0.300059	0.222936	0.011637
382	C	0.28203	0.491044	0.688311
383	C	0.302164	0.027267	0.690575
384	C	0.287832	0.047975	0.01298
385	C	0.338168	0.04439	0.706229
386	H	0.346447	0.027894	0.720771
387	H	0.342145	0.062566	0.733062
388	H	0.354754	0.057212	0.67739
389	C	0.298195	0.469906	0.69736
390	H	0.282312	0.443016	0.690442
391	H	0.30562	0.472228	0.733127
392	H	0.320472	0.478449	0.675802
393	N	0.30566	0.082843	0.011634
394	C	0.343129	0.644838	0.01275
395	N	0.375786	0.670988	0.012842
396	C	0.383756	0.704011	0.012765
397	N	0.357607	0.710519	0.012842
398	C	0.324583	0.685466	0.012754
399	N	0.318076	0.65281	0.012833
400	C	0.297319	0.691827	0.013838
401	C	0.336766	0.611212	0.013841
402	C	0.417384	0.731275	0.013855
403	H	0.357481	0.608413	0.015017
404	H	0.273805	0.671115	0.015002
405	C	0.283018	0.740762	0.346316
406	C	0.302046	0.775919	0.335392
407	C	0.285923	0.796011	0.332914
408	C	0.339388	0.79214	0.326629
409	H	0.350445	0.776382	0.334137
410	H	0.352995	0.814593	0.347915
411	H	0.344595	0.799298	0.290787
412	C	0.304752	0.831908	0.316831
413	H	0.290344	0.835799	0.290223
414	H	0.329346	0.83996	0.301794
415	H	0.308889	0.848702	0.345538
416	N	0.300058	0.722935	0.344969
417	C	0.282028	0.991041	0.021645
418	C	0.302164	0.527267	0.023908
419	C	0.287832	0.547975	0.346312
420	C	0.338167	0.54439	0.039561
421	H	0.346447	0.527894	0.054103
422	H	0.342145	0.562566	0.066394
423	H	0.354752	0.557212	0.010722
424	C	0.298193	0.969904	0.030692
425	H	0.282311	0.943016	0.023774
426	H	0.305619	0.972229	0.066461
427	H	0.320472	0.978449	0.009134
428	N	0.305659	0.582841	0.344969
429	C	0.343129	0.644838	0.346084
430	N	0.375786	0.670988	0.346176
431	C	0.383756	0.704011	0.346097
432	N	0.357607	0.710519	0.346176
433	C	0.324583	0.685466	0.346087
434	N	0.318076	0.65281	0.346166
435	C	0.297319	0.691827	0.347171
436	C	0.336766	0.611212	0.347175
437	C	0.417384	0.731275	0.347189
438	H	0.357481	0.608413	0.348351
439	H	0.273805	0.671115	0.348334
440	C	0.283018	0.740762	0.679648
441	C	0.302046	0.775919	0.668727
442	C	0.285923	0.796011	0.666248
443	C	0.339388	0.79214	0.659961
444	H	0.350445	0.776382	0.667469
445	H	0.352995	0.814593	0.68125
446	H	0.344595	0.799298	0.624122
447	C	0.304752	0.831908	0.650165
448	H	0.290344	0.835799	0.623556
449	H	0.329346	0.83996	0.635129
450	H	0.308889	0.848702	0.67887
451	N	0.300058	0.722935	0.678304
452	C	0.282028	0.991041	0.354979
453	C	0.302164	0.527267	0.35724
454	C	0.287832	0.547975	0.679648
455	C	0.338167	0.54439	0.372893
456	H	0.346447	0.527894	0.387439
457	H	0.342145	0.562566	0.399727
458	H	0.354752	0.557212	0.344055
459	C	0.298193	0.969904	0.364025
460	H	0.282311	0.943016	0.357107
461	H	0.305619	0.972229	0.399795
462	H	0.320472	0.978449	0.342466
463	N	0.305659	0.582841	0.678301
464	C	0.343129	0.644838	0.679419
465	N	0.375786	0.670988	0.679508
466	C	0.383756	0.704011	0.679433
467	N	0.357607	0.710519	0.679508
468	C	0.324583	0.685466	0.679423
469	N	0.318076	0.65281	0.679501
470	C	0.297319	0.691827	0.680507
471	C	0.336766	0.611212	0.680507
472	C	0.417384	0.731275	0.680524
473	H	0.357481	0.608413	0.681683
474	H	0.273805	0.671115	0.681669
475	C	0.283018	0.740762	0.012981
476	C	0.302046	0.775919	0.002059
477	C	0.285923	0.796011	0.99958
478	C	0.339388	0.79214	0.993296
479	H	0.350445	0.776382	0.000804
480	H	0.352995	0.814593	0.014583
481	H	0.344595	0.799298	0.957454
482	C	0.304752	0.831908	0.983497
483	H	0.290344	0.835799	0.956888
484	H	0.329346	0.83996	0.96846
485	H	0.308889	0.848702	0.012205
486	N	0.300058	0.722935	0.011637
487	C	0.282028	0.991041	0.688311
488	C	0.302164	0.527267	0.690575
489	C	0.287832	0.547975	0.01298
490	C	0.338167	0.54439	0.706229
491	H	0.346447	0.527894	0.720771
492	H	0.342145	0.562566	0.733062
493	H	0.354752	0.557212	0.67739
494	C	0.298193	0.969904	0.69736
495	H	0.282311	0.943016	0.690442
496	H	0.305619	0.972229	0.733127
497	H	0.320472	0.978449	0.675802
498	N	0.305659	0.582841	0.011634
499	H	0.420183	0.254789	0.015014
500	C	0.501327	0.280616	0.023905
501	C	0.480621	0.245576	0.346319
502	C	0.496747	0.226549	0.335388
503	C	0.484207	0.299499	0.039556
504	H	0.500704	0.324275	0.054095
505	H	0.466033	0.285303	0.066392
506	H	0.471383	0.303259	0.010719
507	C	0.475626	0.189207	0.32662
508	H	0.448812	0.17815	0.334127
509	H	0.484473	0.175599	0.347905
510	H	0.477577	0.184003	0.290778
511	N	0.445752	0.228535	0.344979
512	H	0.420183	0.254789	0.348348
513	C	0.501327	0.280616	0.35724
514	C	0.480621	0.245576	0.679651
515	C	0.496747	0.226549	0.66872
516	C	0.484207	0.299499	0.37289
517	H	0.500704	0.324275	0.387429
518	H	0.466033	0.285303	0.399724
519	H	0.471383	0.303259	0.344052
520	C	0.475626	0.189207	0.659954
521	H	0.448812	0.17815	0.667462
522	H	0.484473	0.175599	0.68124
523	H	0.477577	0.184003	0.624112
524	N	0.445752	0.228535	0.678311
525	H	0.420183	0.254789	0.68168
526	C	0.501327	0.280616	0.690572
527	C	0.480621	0.245576	0.012984
528	C	0.496747	0.226549	0.002055
529	C	0.484207	0.299499	0.706222
530	H	0.500704	0.324275	0.720764
531	H	0.466033	0.285303	0.733059
532	H	0.471383	0.303259	0.677384
533	C	0.475626	0.189207	0.993289
534	H	0.448812	0.17815	0.000794
535	H	0.484473	0.175599	0.014572
536	H	0.477577	0.184003	0.957444
537	N	0.445752	0.228535	0.011645
538	H	0.420183	0.75479	0.015014
539	C	0.501327	0.780616	0.023905
540	C	0.480619	0.745575	0.346319
541	C	0.496747	0.726548	0.335388
542	C	0.484207	0.7995	0.039556
543	H	0.500703	0.824275	0.054095
544	H	0.466032	0.785303	0.066392
545	H	0.471383	0.803259	0.010719
546	C	0.475625	0.689207	0.32662
547	H	0.44881	0.678149	0.334127
548	H	0.484473	0.675599	0.347905
549	H	0.477577	0.684003	0.290778
550	N	0.44575	0.728533	0.344979
551	H	0.420183	0.75479	0.348348
552	C	0.501327	0.780616	0.35724
553	C	0.480619	0.745575	0.679651
554	C	0.496747	0.726548	0.66872
555	C	0.484207	0.7995	0.37289
556	H	0.500703	0.824275	0.387429
557	H	0.466032	0.785303	0.399724
558	H	0.471383	0.803259	0.344052
559	C	0.475625	0.689207	0.659954
560	H	0.44881	0.678149	0.667462
561	H	0.484473	0.675599	0.68124
562	H	0.477577	0.684003	0.624112
563	N	0.44575	0.728533	0.678311
564	H	0.420183	0.75479	0.68168
565	C	0.501327	0.780616	0.690572
566	C	0.480619	0.745575	0.012984
567	C	0.496747	0.726548	0.002055
568	C	0.484207	0.7995	0.706222
569	H	0.500703	0.824275	0.720764
570	H	0.466032	0.785303	0.733059
571	H	0.471383	0.803259	0.677384
572	C	0.475625	0.689207	0.993289
573	H	0.44881	0.678149	0.000794
574	H	0.484473	0.675599	0.014572
575	H	0.477577	0.684003	0.957444
576	N	0.44575	0.728533	0.011645
577	C	0.537551	0.296705	0.021638
578	C	0.532963	0.242672	0.332908
579	H	0.533489	0.199249	0.301784
580	C	0.537551	0.296705	0.354973
581	C	0.532963	0.242672	0.666241
582	H	0.533489	0.199249	0.635118
583	C	0.537551	0.296705	0.688305
584	C	0.532963	0.242672	0.999576
585	H	0.533489	0.199249	0.96845
586	C	0.537551	0.796705	0.021638
587	C	0.532962	0.742672	0.332908
588	H	0.533487	0.699248	0.301784
589	C	0.537551	0.796705	0.354973
590	C	0.532962	0.742672	0.666241
591	H	0.533487	0.699248	0.635118
592	C	0.537551	0.796705	0.688305
593	C	0.532962	0.742672	0.999576
594	H	0.533487	0.699248	0.96845
595	C	0.691329	0.378083	0.011043
596	N	0.658625	0.352029	0.010958
597	C	0.65051	0.318964	0.011039
598	N	0.676563	0.312312	0.010954
599	C	0.709628	0.337264	0.011039
600	N	0.716282	0.36997	0.010958
601	C	0.736795	0.330756	0.009945
602	C	0.697839	0.41176	0.009952
603	C	0.616834	0.291798	0.009938
604	H	0.613926	0.268238	0.008833
605	H	0.67719	0.414668	0.008837
606	H	0.760356	0.351405	0.008844
607	C	0.843129	0.144838	0.01275
608	N	0.875787	0.170988	0.012842
609	C	0.883756	0.204012	0.012765
610	N	0.857607	0.210519	0.012842
611	C	0.824584	0.185466	0.012754
612	N	0.818076	0.152809	0.012833
613	C	0.797318	0.191828	0.013838
614	C	0.836766	0.111212	0.013841
615	C	0.917385	0.231275	0.013855
616	H	0.920184	0.254789	0.015014
617	H	0.857481	0.108413	0.015017
618	H	0.773805	0.171115	0.015002
619	C	0.750917	0.281717	0.010681
620	C	0.731888	0.246565	0.021636
621	C	0.747977	0.22643	0.023901
622	C	0.783018	0.240764	0.346316
623	C	0.802046	0.275919	0.335392
624	C	0.785922	0.29601	0.332914
625	C	0.729095	0.190425	0.039548
626	H	0.70432	0.182146	0.054088
627	H	0.74329	0.186445	0.066382
628	H	0.725333	0.173843	0.010709
629	C	0.694584	0.230399	0.030674
630	H	0.683579	0.246282	0.023753
631	H	0.689478	0.222971	0.066441
632	H	0.680855	0.208123	0.00911
633	C	0.839389	0.29214	0.326629
634	H	0.850446	0.276381	0.334137
635	H	0.852994	0.314593	0.347915
636	H	0.844594	0.299297	0.290787
637	C	0.804753	0.331908	0.316831
638	H	0.790345	0.335799	0.290223
639	H	0.829345	0.33996	0.301794
640	H	0.80889	0.348702	0.345538
641	N	0.73392	0.299588	0.012091
642	N	0.800059	0.222936	0.344969
643	C	0.746878	0.474919	0.010681
644	C	0.78203	0.491044	0.021645
645	C	0.802165	0.027267	0.023908
646	C	0.787833	0.047975	0.346312
647	C	0.752678	0.031846	0.335382
648	C	0.732585	0.495632	0.332906
649	C	0.838167	0.04439	0.039561
650	H	0.846448	0.027894	0.054103
651	H	0.842146	0.062566	0.066394
652	H	0.854753	0.057212	0.010722
653	C	0.798193	0.469906	0.030692
654	H	0.782311	0.443016	0.023774
655	H	0.805619	0.472228	0.066461
656	H	0.820472	0.478449	0.009134
657	C	0.736457	0.052967	0.326609
658	H	0.752214	0.079782	0.334118
659	H	0.714001	0.044119	0.347891
660	H	0.729306	0.051016	0.290765
661	C	0.696691	0.478562	0.316813
662	H	0.692802	0.46026	0.290209
663	H	0.688641	0.495104	0.301767
664	H	0.679893	0.465907	0.345518
665	N	0.729009	0.440052	0.012098
666	N	0.805661	0.082843	0.344969
667	C	0.553675	0.277677	0.010678
668	C	0.001328	0.280616	0.023905
669	C	0.98062	0.245576	0.346319
670	C	0.996748	0.226549	0.335388
671	C	0.984206	0.299499	0.039556
672	H	0.000703	0.324275	0.054095
673	H	0.966032	0.285303	0.066392
674	H	0.971382	0.303259	0.010719
675	C	0.558692	0.33401	0.030679
676	H	0.585579	0.345016	0.023757
677	H	0.556368	0.339113	0.066447
678	H	0.550145	0.347742	0.00912
679	C	0.975625	0.189207	0.32662
680	H	0.948811	0.17815	0.334127
681	H	0.984472	0.175599	0.347905
682	H	0.977576	0.184003	0.290778
683	C	0.55003	0.223842	0.316822
684	H	0.568329	0.238252	0.290214
685	H	0.562687	0.219705	0.345528
686	N	0.588542	0.294674	0.012089
687	N	0.945751	0.228535	0.344979
688	C	0.691329	0.378083	0.344376
689	N	0.658625	0.352029	0.34429
690	C	0.65051	0.318964	0.344372
691	N	0.676563	0.312312	0.344287
692	C	0.709628	0.337264	0.344372
693	N	0.716282	0.36997	0.34429
694	C	0.736795	0.330756	0.343278
695	C	0.697839	0.41176	0.343285
696	C	0.616834	0.291798	0.343271
697	H	0.613926	0.268238	0.342166
698	H	0.67719	0.414668	0.34217
699	H	0.760356	0.351405	0.342176
700	C	0.843129	0.144838	0.346084
701	N	0.875787	0.170988	0.346176
702	C	0.883756	0.204012	0.346097
703	N	0.857607	0.210519	0.346176
704	C	0.824584	0.185466	0.346087
705	N	0.818076	0.152809	0.346166
706	C	0.797318	0.191828	0.347171
707	C	0.836766	0.111212	0.347175
708	C	0.917385	0.231275	0.347189
709	H	0.920184	0.254789	0.348348
710	H	0.857481	0.108413	0.348351
711	H	0.773805	0.171115	0.348334
712	C	0.750917	0.281717	0.344014
713	C	0.731888	0.246565	0.354969
714	C	0.747977	0.22643	0.357233
715	C	0.783018	0.240764	0.679648
716	C	0.802046	0.275919	0.668727
717	C	0.785922	0.29601	0.666248
718	C	0.729095	0.190425	0.372883
719	H	0.70432	0.182146	0.387422
720	H	0.74329	0.186445	0.399717
721	H	0.725333	0.173843	0.344041
722	C	0.694584	0.230399	0.364008
723	H	0.683579	0.246282	0.357087
724	H	0.689478	0.222971	0.399775
725	H	0.680855	0.208123	0.342442
726	C	0.839389	0.29214	0.659961
727	H	0.850446	0.276381	0.667469
728	H	0.852994	0.314593	0.68125
729	H	0.844594	0.299297	0.624122
730	C	0.804753	0.331908	0.650165
731	H	0.790345	0.335799	0.623556
732	H	0.829345	0.33996	0.635129
733	H	0.80889	0.348702	0.67887
734	N	0.73392	0.299588	0.345426
735	N	0.800059	0.222936	0.678304
736	C	0.746878	0.474919	0.344014
737	C	0.78203	0.491044	0.354979
738	C	0.802165	0.027267	0.35724
739	C	0.787833	0.047975	0.679648
740	C	0.752678	0.031846	0.668716
741	C	0.732585	0.495632	0.666238
742	C	0.838167	0.04439	0.372893
743	H	0.846448	0.027894	0.387439
744	H	0.842146	0.062566	0.399727
745	H	0.854753	0.057212	0.344055
746	C	0.798193	0.469906	0.364025
747	H	0.782311	0.443016	0.357107
748	H	0.805619	0.472228	0.399795
749	H	0.820472	0.478449	0.342466
750	C	0.736457	0.052967	0.659944
751	H	0.752214	0.079782	0.667451
752	H	0.714001	0.044119	0.681223
753	H	0.729306	0.051016	0.624099
754	C	0.696691	0.478562	0.650148
755	H	0.692802	0.46026	0.623543
756	H	0.688641	0.495104	0.635101
757	H	0.679893	0.465907	0.67885
758	N	0.729009	0.440052	0.345433
759	N	0.805661	0.082843	0.678301
760	C	0.553675	0.277677	0.344011
761	C	0.001328	0.280616	0.35724
762	C	0.98062	0.245576	0.679651
763	C	0.996748	0.226549	0.66872
764	C	0.984206	0.299499	0.37289
765	H	0.000703	0.324275	0.387429
766	H	0.966032	0.285303	0.399724
767	H	0.971382	0.303259	0.344052
768	C	0.558692	0.33401	0.364011
769	H	0.585579	0.345016	0.35709
770	H	0.556368	0.339113	0.399781
771	H	0.550145	0.347742	0.342453
772	C	0.975625	0.189207	0.659954
773	H	0.948811	0.17815	0.667462
774	H	0.984472	0.175599	0.68124
775	H	0.977576	0.184003	0.624112
776	C	0.55003	0.223842	0.650155
777	H	0.568329	0.238252	0.623546
778	H	0.562687	0.219705	0.67886
779	N	0.588542	0.294674	0.345422
780	N	0.945751	0.228535	0.678311
781	C	0.691329	0.378083	0.677708
782	N	0.658625	0.352029	0.677622
783	C	0.65051	0.318964	0.677708
784	N	0.676563	0.312312	0.677619
785	C	0.709628	0.337264	0.677704
786	N	0.716282	0.36997	0.677626
787	C	0.736795	0.330756	0.67661
788	C	0.697839	0.41176	0.67662
789	C	0.616834	0.291798	0.676606
790	H	0.613926	0.268238	0.675498
791	H	0.67719	0.414668	0.675502
792	H	0.760356	0.351405	0.675508
793	C	0.843129	0.144838	0.679419
794	N	0.875787	0.170988	0.679508
795	C	0.883756	0.204012	0.679433
796	N	0.857607	0.210519	0.679508
797	C	0.824584	0.185466	0.679423
798	N	0.818076	0.152809	0.679501
799	C	0.797318	0.191828	0.680507
800	C	0.836766	0.111212	0.680507
801	C	0.917385	0.231275	0.680524
802	H	0.920184	0.254789	0.68168
803	H	0.857481	0.108413	0.681683
804	H	0.773805	0.171115	0.681669
805	C	0.750917	0.281717	0.677346
806	C	0.731888	0.246565	0.688305
807	C	0.747977	0.22643	0.690569
808	C	0.783018	0.240764	0.012981
809	C	0.802046	0.275919	0.002059
810	C	0.785922	0.29601	0.99958
811	C	0.729095	0.190425	0.706215
812	H	0.70432	0.182146	0.720757
813	H	0.74329	0.186445	0.733049
814	H	0.725333	0.173843	0.677373
815	C	0.694584	0.230399	0.69734
816	H	0.683579	0.246282	0.690418
817	H	0.689478	0.222971	0.733107
818	H	0.680855	0.208123	0.675778
819	C	0.839389	0.29214	0.993296
820	H	0.850446	0.276381	0.000804
821	H	0.852994	0.314593	0.014583
822	H	0.844594	0.299297	0.957454
823	C	0.804753	0.331908	0.983497
824	H	0.790345	0.335799	0.956888
825	H	0.829345	0.33996	0.96846
826	H	0.80889	0.348702	0.012205
827	N	0.73392	0.299588	0.678758
828	N	0.800059	0.222936	0.011637
829	C	0.746878	0.474919	0.67735
830	C	0.78203	0.491044	0.688311
831	C	0.802165	0.027267	0.690575
832	C	0.787833	0.047975	0.01298
833	C	0.752678	0.031846	0.002048
834	C	0.732585	0.495632	0.999573
835	C	0.838167	0.04439	0.706229
836	H	0.846448	0.027894	0.720771
837	H	0.842146	0.062566	0.733062
838	H	0.854753	0.057212	0.67739
839	C	0.798193	0.469906	0.69736
840	H	0.782311	0.443016	0.690442
841	H	0.805619	0.472228	0.733127
842	H	0.820472	0.478449	0.675802
843	C	0.736457	0.052967	0.993276
844	H	0.752214	0.079782	0.000783
845	H	0.714001	0.044119	0.014557
846	H	0.729306	0.051016	0.957434
847	C	0.696691	0.478562	0.98348
848	H	0.692802	0.46026	0.956878
849	H	0.688641	0.495104	0.968433
850	H	0.679893	0.465907	0.012184
851	N	0.729009	0.440052	0.678765
852	N	0.805661	0.082843	0.011634
853	C	0.553675	0.277677	0.677346
854	C	0.001328	0.280616	0.690572
855	C	0.98062	0.245576	0.012984
856	C	0.996748	0.226549	0.002055
857	C	0.984206	0.299499	0.706222
858	H	0.000703	0.324275	0.720764
859	H	0.966032	0.285303	0.733059
860	H	0.971382	0.303259	0.677384
861	C	0.558692	0.33401	0.697347
862	H	0.585579	0.345016	0.690425
863	H	0.556368	0.339113	0.733113
864	H	0.550145	0.347742	0.675785
865	C	0.975625	0.189207	0.993289
866	H	0.948811	0.17815	0.000794
867	H	0.984472	0.175599	0.014572
868	H	0.977576	0.184003	0.957444
869	C	0.55003	0.223842	0.98349
870	H	0.568329	0.238252	0.956882
871	H	0.562687	0.219705	0.012194
872	N	0.588542	0.294674	0.678758
873	N	0.945751	0.228535	0.011645
874	C	0.691328	0.878084	0.011043
875	N	0.658624	0.85203	0.010958
876	C	0.650511	0.818964	0.011039
877	N	0.676564	0.812312	0.010954
878	C	0.709628	0.837264	0.011039
879	N	0.71628	0.869968	0.010958
880	C	0.736795	0.830753	0.009945
881	C	0.697841	0.91176	0.009952
882	C	0.616834	0.791796	0.009938
883	H	0.613925	0.768238	0.008833
884	H	0.677189	0.914668	0.008837
885	H	0.760355	0.851406	0.008844
886	C	0.84313	0.644838	0.01275
887	N	0.875786	0.670988	0.012842
888	C	0.883757	0.704011	0.012765
889	N	0.857608	0.710519	0.012842
890	C	0.824583	0.685466	0.012754
891	N	0.818075	0.65281	0.012833
892	C	0.797319	0.691827	0.013838
893	C	0.836767	0.611212	0.013841
894	C	0.917383	0.731275	0.013855
895	H	0.920183	0.75479	0.015014
896	H	0.85748	0.608413	0.015017
897	H	0.773804	0.671115	0.015002
898	C	0.750916	0.781718	0.010681
899	C	0.731888	0.746566	0.021636
900	C	0.747975	0.726429	0.023901
901	C	0.783018	0.740762	0.346316
902	C	0.802045	0.775919	0.335392
903	C	0.785924	0.796011	0.332914
904	C	0.729094	0.690425	0.039548
905	H	0.704319	0.682146	0.054088
906	H	0.743291	0.686443	0.066382
907	H	0.725332	0.673843	0.010709
908	C	0.694584	0.730398	0.030674
909	H	0.683578	0.746283	0.023753
910	H	0.689476	0.72297	0.066441
911	H	0.680853	0.708121	0.00911
912	C	0.839388	0.79214	0.326629
913	H	0.850445	0.776382	0.334137
914	H	0.852993	0.814593	0.347915
915	H	0.844595	0.799298	0.290787
916	C	0.804752	0.831908	0.316831
917	H	0.790344	0.835799	0.290223
918	H	0.829346	0.83996	0.301794
919	H	0.808889	0.848702	0.345538
920	N	0.733917	0.799586	0.012091
921	N	0.800057	0.722935	0.344969
922	C	0.746875	0.974917	0.010681
923	C	0.782028	0.991041	0.021645
924	C	0.802164	0.527267	0.023908
925	C	0.787832	0.547975	0.346312
926	C	0.752676	0.531845	0.335382
927	C	0.732585	0.99563	0.332906
928	C	0.838168	0.54439	0.039561
929	H	0.846446	0.527894	0.054103
930	H	0.842145	0.562566	0.066394
931	H	0.854751	0.557212	0.010722
932	C	0.798193	0.969904	0.030692
933	H	0.782312	0.943016	0.023774
934	H	0.80562	0.972229	0.066461
935	H	0.820472	0.978449	0.009134
936	C	0.736458	0.552967	0.326609
937	H	0.752213	0.579782	0.334118
938	H	0.714	0.544119	0.347891
939	H	0.729304	0.551014	0.290765
940	C	0.69669	0.978563	0.316813
941	H	0.692802	0.96026	0.290209
942	H	0.688639	0.995102	0.301767
943	H	0.679892	0.965907	0.345518
944	N	0.729008	0.940053	0.012098
945	N	0.805659	0.582841	0.344969
946	C	0.553675	0.777675	0.010678
947	C	0.001327	0.780616	0.023905
948	C	0.980618	0.745575	0.346319
949	C	0.996747	0.726548	0.335388
950	C	0.984208	0.7995	0.039556
951	H	0.000702	0.824275	0.054095
952	H	0.966031	0.785303	0.066392
953	H	0.971383	0.803259	0.010719
954	C	0.558689	0.834008	0.030679
955	H	0.585578	0.845013	0.023757
956	H	0.556369	0.839114	0.066447
957	H	0.550143	0.847739	0.00912
958	C	0.975626	0.689207	0.32662
959	H	0.948809	0.678149	0.334127
960	H	0.984473	0.675599	0.347905
961	H	0.977577	0.684003	0.290778
962	C	0.550029	0.723842	0.316822
963	H	0.568328	0.738251	0.290214
964	H	0.562687	0.719706	0.345528
965	N	0.588542	0.794674	0.012089
966	N	0.945751	0.728533	0.344979
967	C	0.691328	0.878084	0.344376
968	N	0.658624	0.85203	0.34429
969	C	0.650511	0.818964	0.344372
970	N	0.676564	0.812312	0.344287
971	C	0.709628	0.837264	0.344372
972	N	0.71628	0.869968	0.34429
973	C	0.736795	0.830753	0.343278
974	C	0.697841	0.91176	0.343285
975	C	0.616834	0.791796	0.343271
976	H	0.613925	0.768238	0.342166
977	H	0.677189	0.914668	0.34217
978	H	0.760355	0.851406	0.342176
979	C	0.84313	0.644838	0.346084
980	N	0.875786	0.670988	0.346176
981	C	0.883757	0.704011	0.346097
982	N	0.857608	0.710519	0.346176
983	C	0.824583	0.685466	0.346087
984	N	0.818075	0.65281	0.346166
985	C	0.797319	0.691827	0.347171
986	C	0.836767	0.611212	0.347175
987	C	0.917383	0.731275	0.347189
988	H	0.920183	0.75479	0.348348
989	H	0.85748	0.608413	0.348351
990	H	0.773804	0.671115	0.348334
991	C	0.750916	0.781718	0.344014
992	C	0.731888	0.746566	0.354969
993	C	0.747975	0.726429	0.357233
994	C	0.783018	0.740762	0.679648
995	C	0.802045	0.775919	0.668727
996	C	0.785924	0.796011	0.666248
997	C	0.729094	0.690425	0.372883
998	H	0.704319	0.682146	0.387422
999	H	0.743291	0.686443	0.399717
1000	H	0.725332	0.673843	0.344041
1001	C	0.694584	0.730398	0.364008
1002	H	0.683578	0.746283	0.357087
1003	H	0.689476	0.72297	0.399775
1004	H	0.680853	0.708121	0.342442
1005	C	0.839388	0.79214	0.659961
1006	H	0.850445	0.776382	0.667469
1007	H	0.852993	0.814593	0.68125
1008	H	0.844595	0.799298	0.624122
1009	C	0.804752	0.831908	0.650165
1010	H	0.790344	0.835799	0.623556
1011	H	0.829346	0.83996	0.635129
1012	H	0.808889	0.848702	0.67887
1013	N	0.733917	0.799586	0.345426
1014	N	0.800057	0.722935	0.678304
1015	C	0.746875	0.974917	0.344014
1016	C	0.782028	0.991041	0.354979
1017	C	0.802164	0.527267	0.35724
1018	C	0.787832	0.547975	0.679648
1019	C	0.752676	0.531845	0.668716
1020	C	0.732585	0.99563	0.666238
1021	C	0.838168	0.54439	0.372893
1022	H	0.846446	0.527894	0.387439
1023	H	0.842145	0.562566	0.399727
1024	H	0.854751	0.557212	0.344055
1025	C	0.798193	0.969904	0.364025
1026	H	0.782312	0.943016	0.357107
1027	H	0.80562	0.972229	0.399795
1028	H	0.820472	0.978449	0.342466
1029	C	0.736458	0.552967	0.659944
1030	H	0.752213	0.579782	0.667451
1031	H	0.714	0.544119	0.681223
1032	H	0.729304	0.551014	0.624099
1033	C	0.69669	0.978563	0.650148
1034	H	0.692802	0.96026	0.623543
1035	H	0.688639	0.995102	0.635101
1036	H	0.679892	0.965907	0.67885
1037	N	0.729008	0.940053	0.345433
1038	N	0.805659	0.582841	0.678301
1039	C	0.553675	0.777675	0.344011
1040	C	0.001327	0.780616	0.35724
1041	C	0.980618	0.745575	0.679651
1042	C	0.996747	0.726548	0.66872
1043	C	0.984208	0.7995	0.37289
1044	H	0.000702	0.824275	0.387429
1045	H	0.966031	0.785303	0.399724
1046	H	0.971383	0.803259	0.344052
1047	C	0.558689	0.834008	0.364011
1048	H	0.585578	0.845013	0.35709
1049	H	0.556369	0.839114	0.399781
1050	H	0.550143	0.847739	0.342453
1051	C	0.975626	0.689207	0.659954
1052	H	0.948809	0.678149	0.667462
1053	H	0.984473	0.675599	0.68124
1054	H	0.977577	0.684003	0.624112
1055	C	0.550029	0.723842	0.650155
1056	H	0.568328	0.738251	0.623546
1057	H	0.562687	0.719706	0.67886
1058	N	0.588542	0.794674	0.345422
1059	N	0.945751	0.728533	0.678311
1060	C	0.691328	0.878084	0.677708
1061	N	0.658624	0.85203	0.677622
1062	C	0.650511	0.818964	0.677708
1063	N	0.676564	0.812312	0.677619
1064	C	0.709628	0.837264	0.677704
1065	N	0.71628	0.869968	0.677626
1066	C	0.736795	0.830753	0.67661
1067	C	0.697841	0.91176	0.67662
1068	C	0.616834	0.791796	0.676606
1069	H	0.613925	0.768238	0.675498
1070	H	0.677189	0.914668	0.675502
1071	H	0.760355	0.851406	0.675508
1072	C	0.84313	0.644838	0.679419
1073	N	0.875786	0.670988	0.679508
1074	C	0.883757	0.704011	0.679433
1075	N	0.857608	0.710519	0.679508
1076	C	0.824583	0.685466	0.679423
1077	N	0.818075	0.65281	0.679501
1078	C	0.797319	0.691827	0.680507
1079	C	0.836767	0.611212	0.680507
1080	C	0.917383	0.731275	0.680524
1081	H	0.920183	0.75479	0.68168
1082	H	0.85748	0.608413	0.681683
1083	H	0.773804	0.671115	0.681669
1084	C	0.750916	0.781718	0.677346
1085	C	0.731888	0.746566	0.688305
1086	C	0.747975	0.726429	0.690569
1087	C	0.783018	0.740762	0.012981
1088	C	0.802045	0.775919	0.002059
1089	C	0.785924	0.796011	0.99958
1090	C	0.729094	0.690425	0.706215
1091	H	0.704319	0.682146	0.720757
1092	H	0.743291	0.686443	0.733049
1093	H	0.725332	0.673843	0.677373
1094	C	0.694584	0.730398	0.69734
1095	H	0.683578	0.746283	0.690418
1096	H	0.689476	0.72297	0.733107
1097	H	0.680853	0.708121	0.675778
1098	C	0.839388	0.79214	0.993296
1099	H	0.850445	0.776382	0.000804
1100	H	0.852993	0.814593	0.014583
1101	H	0.844595	0.799298	0.957454
1102	C	0.804752	0.831908	0.983497
1103	H	0.790344	0.835799	0.956888
1104	H	0.829346	0.83996	0.96846
1105	H	0.808889	0.848702	0.012205
1106	N	0.733917	0.799586	0.678758
1107	N	0.800057	0.722935	0.011637
1108	C	0.746875	0.974917	0.67735
1109	C	0.782028	0.991041	0.688311
1110	C	0.802164	0.527267	0.690575
1111	C	0.787832	0.547975	0.01298
1112	C	0.752676	0.531845	0.002048
1113	C	0.732585	0.99563	0.999573
1114	C	0.838168	0.54439	0.706229
1115	H	0.846446	0.527894	0.720771
1116	H	0.842145	0.562566	0.733062
1117	H	0.854751	0.557212	0.67739
1118	C	0.798193	0.969904	0.69736
1119	H	0.782312	0.943016	0.690442
1120	H	0.80562	0.972229	0.733127
1121	H	0.820472	0.978449	0.675802
1122	C	0.736458	0.552967	0.993276
1123	H	0.752213	0.579782	0.000783
1124	H	0.714	0.544119	0.014557
1125	H	0.729304	0.551014	0.957434
1126	C	0.69669	0.978563	0.98348
1127	H	0.692802	0.96026	0.956878
1128	H	0.688639	0.995102	0.968433
1129	H	0.679892	0.965907	0.012184
1130	N	0.729008	0.940053	0.678765
1131	N	0.805659	0.582841	0.011634
1132	C	0.553675	0.777675	0.677346
1133	C	0.001327	0.780616	0.690572
1134	C	0.980618	0.745575	0.012984
1135	C	0.996747	0.726548	0.002055
1136	C	0.984208	0.7995	0.706222
1137	H	0.000702	0.824275	0.720764
1138	H	0.966031	0.785303	0.733059
1139	H	0.971383	0.803259	0.677384
1140	C	0.558689	0.834008	0.697347
1141	H	0.585578	0.845013	0.690425
1142	H	0.556369	0.839114	0.733113
1143	H	0.550143	0.847739	0.675785
1144	C	0.975626	0.689207	0.993289
1145	H	0.948809	0.678149	0.000794
1146	H	0.984473	0.675599	0.014572
1147	H	0.977577	0.684003	0.957444
1148	C	0.550029	0.723842	0.98349
1149	H	0.568328	0.738251	0.956882
1150	H	0.562687	0.719706	0.012194
1151	N	0.588542	0.794674	0.678758
1152	N	0.945751	0.728533	0.011645
