data_C504H504_2018-02-15_10:38:47
#******************************************
#
# CIF file created by Zeo++
# Zeo++ is an open source package to
# analyze microporous materials
#
#*******************************************

_cell_length_a		29.7008   
_cell_length_b		29.7008   
_cell_length_c		29.586   
_cell_angle_alpha		90   
_cell_angle_beta		90   
_cell_angle_gamma		120   

_symmetry_space_group_name_H-M		'P1'
_symmetry_Int_Tables_number		1
_symmetry_cell_setting		Monoclinic

loop_
_symmetry_equiv_pos_as_xyz
'+x,+y,+z'

loop_
_atom_site_label
_atom_site_type_symbol
_atom_site_fract_x
_atom_site_fract_y
_atom_site_fract_z
1	C	0.06627	0.284885	0.007914
2	C	0.038312	0.270906	0.049744
3	C	0.038535	0.271017	0.299325
4	C	0.0668	0.285149	0.094139
5	H	0.056324	0.249909	0.113397
6	H	0.056323	0.309912	0.113398
7	C	0.067094	0.285297	0.254846
8	H	0.05674	0.310034	0.235452
9	H	0.056741	0.250205	0.235453
10	C	0.06627	0.284885	0.341246
11	C	0.038312	0.270906	0.383077
12	C	0.038535	0.271017	0.632658
13	C	0.0668	0.285149	0.427473
14	H	0.056324	0.249909	0.446732
15	H	0.056323	0.309912	0.446732
16	C	0.067094	0.285297	0.58818
17	H	0.05674	0.310034	0.568786
18	H	0.056741	0.250205	0.568786
19	C	0.06627	0.284885	0.674579
20	C	0.038312	0.270906	0.71641
21	C	0.038535	0.271017	0.965991
22	C	0.0668	0.285149	0.760806
23	H	0.056324	0.249909	0.780065
24	H	0.056323	0.309912	0.780065
25	C	0.067094	0.285297	0.921514
26	H	0.05674	0.310034	0.90212
27	H	0.056741	0.250205	0.90212
28	C	0.066269	0.784884	0.007914
29	C	0.038313	0.770904	0.049744
30	C	0.038534	0.771017	0.299325
31	C	0.0668	0.785149	0.094139
32	H	0.056325	0.74991	0.113397
33	H	0.056323	0.809914	0.113398
34	C	0.067094	0.785296	0.254846
35	H	0.05674	0.810034	0.235452
36	H	0.056741	0.750205	0.235453
37	C	0.066269	0.784884	0.341246
38	C	0.038313	0.770904	0.383077
39	C	0.038534	0.771017	0.632658
40	C	0.0668	0.785149	0.427473
41	H	0.056325	0.74991	0.446732
42	H	0.056323	0.809914	0.446732
43	C	0.067094	0.785296	0.58818
44	H	0.05674	0.810034	0.568786
45	H	0.056741	0.750205	0.568786
46	C	0.066269	0.784884	0.674579
47	C	0.038313	0.770904	0.71641
48	C	0.038534	0.771017	0.965991
49	C	0.0668	0.785149	0.760806
50	H	0.056325	0.74991	0.780065
51	H	0.056323	0.809914	0.780065
52	C	0.067094	0.785296	0.921514
53	H	0.05674	0.810034	0.90212
54	H	0.056741	0.750205	0.90212
55	C	0.121652	0.312576	0.00795
56	C	0.14981	0.367685	0.007952
57	C	0.149808	0.285623	0.007952
58	H	0.129889	0.245787	0.007941
59	H	0.129893	0.387603	0.007941
60	H	0.109004	0.306252	0.091827
61	H	0.109288	0.306395	0.2573
62	C	0.121652	0.312576	0.341283
63	C	0.14981	0.367685	0.341287
64	C	0.149808	0.285623	0.341287
65	H	0.129889	0.245787	0.341273
66	H	0.129893	0.387603	0.341273
67	H	0.109004	0.306252	0.425161
68	H	0.109288	0.306395	0.590634
69	C	0.121652	0.312576	0.674617
70	C	0.14981	0.367685	0.674617
71	C	0.149808	0.285623	0.67462
72	H	0.129889	0.245787	0.674607
73	H	0.129893	0.387603	0.674607
74	H	0.109004	0.306252	0.758494
75	H	0.109288	0.306395	0.923968
76	C	0.121653	0.812577	0.00795
77	C	0.149811	0.867686	0.007952
78	C	0.149808	0.785623	0.007952
79	H	0.12989	0.745789	0.007941
80	H	0.129893	0.887603	0.007941
81	H	0.109004	0.806252	0.091827
82	H	0.109288	0.806395	0.2573
83	C	0.121653	0.812577	0.341283
84	C	0.149811	0.867686	0.341287
85	C	0.149808	0.785623	0.341287
86	H	0.12989	0.745789	0.341273
87	H	0.129893	0.887603	0.341273
88	H	0.109004	0.806252	0.425161
89	H	0.109288	0.806395	0.590634
90	C	0.121653	0.812577	0.674617
91	C	0.149811	0.867686	0.674617
92	C	0.149808	0.785623	0.67462
93	H	0.12989	0.745789	0.674607
94	H	0.129893	0.887603	0.674607
95	H	0.109004	0.806252	0.758494
96	H	0.109288	0.806395	0.923968
97	C	0.204919	0.395842	0.00795
98	C	0.204916	0.312574	0.00795
99	H	0.211234	0.306243	0.091828
100	H	0.207579	0.249904	0.113398
101	H	0.211091	0.306386	0.257301
102	H	0.207457	0.250201	0.235452
103	H	0.211253	0.408489	0.091828
104	H	0.207582	0.461164	0.113398
105	H	0.21111	0.408205	0.257301
106	H	0.207459	0.460745	0.235453
107	C	0.204919	0.395842	0.341283
108	C	0.204916	0.312574	0.341283
109	H	0.211234	0.306243	0.425161
110	H	0.207579	0.249904	0.446732
111	H	0.211091	0.306386	0.590634
112	H	0.207457	0.250201	0.568786
113	H	0.211253	0.408489	0.425161
114	H	0.207582	0.461164	0.446732
115	H	0.21111	0.408205	0.590634
116	H	0.207459	0.460745	0.568786
117	C	0.204919	0.395842	0.674617
118	C	0.204916	0.312574	0.674617
119	H	0.211234	0.306243	0.758494
120	H	0.207579	0.249904	0.780065
121	H	0.211091	0.306386	0.923968
122	H	0.207457	0.250201	0.90212
123	H	0.211253	0.408489	0.758494
124	H	0.207582	0.461164	0.780065
125	H	0.21111	0.408205	0.923968
126	H	0.207459	0.460745	0.90212
127	C	0.204919	0.895841	0.00795
128	C	0.204916	0.812573	0.00795
129	H	0.211235	0.806244	0.091828
130	H	0.207578	0.749902	0.113398
131	H	0.21109	0.806384	0.257301
132	H	0.207457	0.750201	0.235452
133	H	0.211253	0.908488	0.091828
134	H	0.207582	0.961164	0.113398
135	H	0.211111	0.908205	0.257301
136	H	0.207459	0.960744	0.235453
137	C	0.204919	0.895841	0.341283
138	C	0.204916	0.812573	0.341283
139	H	0.211235	0.806244	0.425161
140	H	0.207578	0.749902	0.446732
141	H	0.21109	0.806384	0.590634
142	H	0.207457	0.750201	0.568786
143	H	0.211253	0.908488	0.425161
144	H	0.207582	0.961164	0.446732
145	H	0.211111	0.908205	0.590634
146	H	0.207459	0.960744	0.568786
147	C	0.204919	0.895841	0.674617
148	C	0.204916	0.812573	0.674617
149	H	0.211235	0.806244	0.758494
150	H	0.207578	0.749902	0.780065
151	H	0.21109	0.806384	0.923968
152	H	0.207457	0.750201	0.90212
153	H	0.211253	0.908488	0.758494
154	H	0.207582	0.961164	0.780065
155	H	0.211111	0.908205	0.923968
156	H	0.207459	0.960744	0.90212
157	C	0.231869	0.367682	0.007952
158	H	0.271705	0.3876	0.007942
159	C	0.399359	0.201428	0.007783
160	C	0.371168	0.146322	0.007592
161	C	0.316062	0.118133	0.007781
162	C	0.289147	0.146324	0.007587
163	C	0.316064	0.20143	0.007781
164	C	0.37117	0.228345	0.007587
165	H	0.249312	0.126407	0.007503
166	H	0.391088	0.26818	0.007504
167	H	0.391085	0.126404	0.007503
168	C	0.232606	0.284882	0.007914
169	C	0.246586	0.270904	0.049744
170	C	0.27448	0.243015	0.049576
171	C	0.288334	0.229162	0.00763
172	C	0.274368	0.243127	0.299185
173	C	0.246474	0.271016	0.299325
174	C	0.29013	0.227371	0.09265
175	H	0.279003	0.238499	0.123837
176	H	0.332333	0.244908	0.093764
177	H	0.272597	0.185169	0.093767
178	C	0.23234	0.285145	0.09414
179	H	0.267579	0.309911	0.113398
180	C	0.288581	0.228917	0.254657
181	H	0.309685	0.207822	0.257057
182	H	0.31329	0.264037	0.235286
183	H	0.253463	0.204202	0.235286
184	C	0.232192	0.285293	0.254847
185	H	0.267282	0.310034	0.235453
186	C	0.232611	0.451223	0.007914
187	C	0.246589	0.47918	0.049743
188	C	0.274477	0.034964	0.049576
189	C	0.28833	0.062671	0.00763
190	C	0.274365	0.03474	0.299185
191	C	0.246476	0.478955	0.299325
192	C	0.290119	0.066257	0.09265
193	H	0.278991	0.044002	0.123837
194	H	0.272581	0.090922	0.093763
195	H	0.332322	0.090927	0.093767
196	C	0.23235	0.450695	0.09414
197	H	0.267591	0.461176	0.113397
198	C	0.288573	0.063162	0.254657
199	H	0.309667	0.105362	0.257057
200	H	0.253454	0.052751	0.235286
201	H	0.313289	0.052761	0.235286
202	C	0.2322	0.450395	0.254846
203	H	0.267293	0.460756	0.235452
204	C	0.482527	0.243013	0.049577
205	C	0.454819	0.229159	0.007631
206	C	0.482752	0.243125	0.299186
207	C	0.451236	0.227366	0.092651
208	H	0.47349	0.238494	0.123838
209	H	0.426569	0.185164	0.093767
210	H	0.426569	0.244902	0.093767
211	C	0.45433	0.228914	0.254658
212	H	0.412129	0.207813	0.257058
213	H	0.464735	0.204202	0.235286
214	H	0.464734	0.264032	0.235287
215	C	0.231869	0.367682	0.341287
216	H	0.271705	0.3876	0.341276
217	C	0.399359	0.201428	0.341118
218	C	0.371168	0.146322	0.340925
219	C	0.316062	0.118133	0.341114
220	C	0.289147	0.146324	0.340918
221	C	0.316064	0.20143	0.341114
222	C	0.37117	0.228345	0.340922
223	H	0.249312	0.126407	0.340837
224	H	0.391088	0.26818	0.340837
225	H	0.391085	0.126404	0.340837
226	C	0.232606	0.284882	0.341246
227	C	0.246586	0.270904	0.383077
228	C	0.27448	0.243015	0.382911
229	C	0.288334	0.229162	0.340962
230	C	0.274368	0.243127	0.632519
231	C	0.246474	0.271016	0.632658
232	C	0.29013	0.227371	0.425982
233	H	0.279003	0.238499	0.457169
234	H	0.332333	0.244908	0.427097
235	H	0.272597	0.185169	0.427101
236	C	0.23234	0.285145	0.427473
237	H	0.267579	0.309911	0.446732
238	C	0.288581	0.228917	0.587991
239	H	0.309685	0.207822	0.590391
240	H	0.31329	0.264037	0.568617
241	H	0.253463	0.204202	0.568621
242	C	0.232192	0.285293	0.58818
243	H	0.267282	0.310034	0.568786
244	C	0.232611	0.451223	0.341246
245	C	0.246589	0.47918	0.383077
246	C	0.274477	0.034964	0.382908
247	C	0.28833	0.062671	0.340962
248	C	0.274365	0.03474	0.632519
249	C	0.246476	0.478955	0.632658
250	C	0.290119	0.066257	0.425982
251	H	0.278991	0.044002	0.457169
252	H	0.272581	0.090922	0.427097
253	H	0.332322	0.090927	0.427101
254	C	0.23235	0.450695	0.427473
255	H	0.267591	0.461176	0.446732
256	C	0.288573	0.063162	0.587991
257	H	0.309667	0.105362	0.590391
258	H	0.253454	0.052751	0.568617
259	H	0.313289	0.052761	0.568621
260	C	0.2322	0.450395	0.58818
261	H	0.267293	0.460756	0.568786
262	C	0.482527	0.243013	0.382911
263	C	0.454819	0.229159	0.340965
264	C	0.482752	0.243125	0.632519
265	C	0.451236	0.227366	0.425985
266	H	0.47349	0.238494	0.457169
267	H	0.426569	0.185164	0.427101
268	H	0.426569	0.244902	0.427101
269	C	0.45433	0.228914	0.587991
270	H	0.412129	0.207813	0.590391
271	H	0.464735	0.204202	0.568621
272	H	0.464734	0.264032	0.568621
273	C	0.231869	0.367682	0.67462
274	H	0.271705	0.3876	0.674607
275	C	0.399359	0.201428	0.674448
276	C	0.371168	0.146322	0.674258
277	C	0.316062	0.118133	0.674448
278	C	0.289147	0.146324	0.674252
279	C	0.316064	0.20143	0.674448
280	C	0.37117	0.228345	0.674255
281	H	0.249312	0.126407	0.67417
282	H	0.391088	0.26818	0.67417
283	H	0.391085	0.126404	0.67417
284	C	0.232606	0.284882	0.674579
285	C	0.246586	0.270904	0.71641
286	C	0.27448	0.243015	0.716241
287	C	0.288334	0.229162	0.674296
288	C	0.274368	0.243127	0.965852
289	C	0.246474	0.271016	0.965991
290	C	0.29013	0.227371	0.759316
291	H	0.279003	0.238499	0.790503
292	H	0.332333	0.244908	0.760431
293	H	0.272597	0.185169	0.760434
294	C	0.23234	0.285145	0.760806
295	H	0.267579	0.309911	0.780065
296	C	0.288581	0.228917	0.921325
297	H	0.309685	0.207822	0.923724
298	H	0.31329	0.264037	0.901951
299	H	0.253463	0.204202	0.901954
300	C	0.232192	0.285293	0.921514
301	H	0.267282	0.310034	0.90212
302	C	0.232611	0.451223	0.674579
303	C	0.246589	0.47918	0.71641
304	C	0.274477	0.034964	0.716241
305	C	0.28833	0.062671	0.674296
306	C	0.274365	0.03474	0.965852
307	C	0.246476	0.478955	0.965991
308	C	0.290119	0.066257	0.759316
309	H	0.278991	0.044002	0.790503
310	H	0.272581	0.090922	0.760431
311	H	0.332322	0.090927	0.760434
312	C	0.23235	0.450695	0.760806
313	H	0.267591	0.461176	0.780065
314	C	0.288573	0.063162	0.921325
315	H	0.309667	0.105362	0.923724
316	H	0.253454	0.052751	0.901951
317	H	0.313289	0.052761	0.901951
318	C	0.2322	0.450395	0.921514
319	H	0.267293	0.460756	0.90212
320	C	0.482527	0.243013	0.716244
321	C	0.454819	0.229159	0.674299
322	C	0.482752	0.243125	0.965852
323	C	0.451236	0.227366	0.759316
324	H	0.47349	0.238494	0.790503
325	H	0.426569	0.185164	0.760434
326	H	0.426569	0.244902	0.760434
327	C	0.45433	0.228914	0.921325
328	H	0.412129	0.207813	0.923724
329	H	0.464735	0.204202	0.901954
330	H	0.464734	0.264032	0.901954
331	C	0.231869	0.867682	0.007952
332	H	0.271705	0.887599	0.007942
333	C	0.39936	0.701429	0.007783
334	C	0.371169	0.646324	0.007592
335	C	0.316063	0.618134	0.007781
336	C	0.289147	0.646324	0.007587
337	C	0.316064	0.701429	0.007781
338	C	0.37117	0.728344	0.007587
339	H	0.249312	0.626407	0.007503
340	H	0.391087	0.768178	0.007504
341	H	0.391085	0.626403	0.007503
342	C	0.232606	0.78488	0.007914
343	C	0.246586	0.770904	0.049744
344	C	0.274479	0.743013	0.049576
345	C	0.288334	0.729161	0.00763
346	C	0.274367	0.743126	0.299185
347	C	0.246475	0.771017	0.299325
348	C	0.290131	0.727372	0.09265
349	H	0.279003	0.738499	0.123837
350	H	0.332334	0.74491	0.093764
351	H	0.272598	0.685171	0.093767
352	C	0.23234	0.785145	0.09414
353	H	0.267579	0.80991	0.113398
354	C	0.28858	0.728916	0.254657
355	H	0.309685	0.707821	0.257057
356	H	0.313291	0.764038	0.235286
357	H	0.253463	0.704201	0.235286
358	C	0.232192	0.785293	0.254847
359	H	0.267283	0.810034	0.235453
360	C	0.232611	0.951223	0.007914
361	C	0.246589	0.97918	0.049743
362	C	0.274477	0.534962	0.049576
363	C	0.28833	0.56267	0.00763
364	C	0.274366	0.534741	0.299185
365	C	0.246478	0.978958	0.299325
366	C	0.290121	0.566259	0.09265
367	H	0.278991	0.544001	0.123837
368	H	0.272582	0.590923	0.093763
369	H	0.332322	0.590927	0.093767
370	C	0.23235	0.950694	0.09414
371	H	0.267592	0.961176	0.113397
372	C	0.288572	0.56316	0.254657
373	H	0.309668	0.605362	0.257057
374	H	0.253455	0.552753	0.235286
375	H	0.313289	0.552761	0.235286
376	C	0.2322	0.950395	0.254846
377	H	0.267293	0.960756	0.235452
378	C	0.482529	0.743013	0.049577
379	C	0.45482	0.729157	0.007631
380	C	0.482752	0.743126	0.299186
381	C	0.451235	0.727365	0.092651
382	H	0.473492	0.738495	0.123838
383	H	0.426568	0.685163	0.093767
384	H	0.426569	0.744902	0.093767
385	C	0.454328	0.728912	0.254658
386	H	0.412129	0.707813	0.257058
387	H	0.464735	0.704201	0.235286
388	H	0.464733	0.76403	0.235287
389	C	0.231869	0.867682	0.341287
390	H	0.271705	0.887599	0.341276
391	C	0.39936	0.701429	0.341118
392	C	0.371169	0.646324	0.340925
393	C	0.316063	0.618134	0.341114
394	C	0.289147	0.646324	0.340918
395	C	0.316064	0.701429	0.341114
396	C	0.37117	0.728344	0.340922
397	H	0.249312	0.626407	0.340837
398	H	0.391087	0.768178	0.340837
399	H	0.391085	0.626403	0.340837
400	C	0.232606	0.78488	0.341246
401	C	0.246586	0.770904	0.383077
402	C	0.274479	0.743013	0.382911
403	C	0.288334	0.729161	0.340962
404	C	0.274367	0.743126	0.632519
405	C	0.246475	0.771017	0.632658
406	C	0.290131	0.727372	0.425982
407	H	0.279003	0.738499	0.457169
408	H	0.332334	0.74491	0.427097
409	H	0.272598	0.685171	0.427101
410	C	0.23234	0.785145	0.427473
411	H	0.267579	0.80991	0.446732
412	C	0.28858	0.728916	0.587991
413	H	0.309685	0.707821	0.590391
414	H	0.313291	0.764038	0.568617
415	H	0.253463	0.704201	0.568621
416	C	0.232192	0.785293	0.58818
417	H	0.267283	0.810034	0.568786
418	C	0.232611	0.951223	0.341246
419	C	0.246589	0.97918	0.383077
420	C	0.274477	0.534962	0.382908
421	C	0.28833	0.56267	0.340962
422	C	0.274366	0.534741	0.632519
423	C	0.246478	0.978958	0.632658
424	C	0.290121	0.566259	0.425982
425	H	0.278991	0.544001	0.457169
426	H	0.272582	0.590923	0.427097
427	H	0.332322	0.590927	0.427101
428	C	0.23235	0.950694	0.427473
429	H	0.267592	0.961176	0.446732
430	C	0.288572	0.56316	0.587991
431	H	0.309668	0.605362	0.590391
432	H	0.253455	0.552753	0.568617
433	H	0.313289	0.552761	0.568621
434	C	0.2322	0.950395	0.58818
435	H	0.267293	0.960756	0.568786
436	C	0.482529	0.743013	0.382911
437	C	0.45482	0.729157	0.340965
438	C	0.482752	0.743126	0.632519
439	C	0.451235	0.727365	0.425985
440	H	0.473492	0.738495	0.457169
441	H	0.426568	0.685163	0.427101
442	H	0.426569	0.744902	0.427101
443	C	0.454328	0.728912	0.587991
444	H	0.412129	0.707813	0.590391
445	H	0.464735	0.704201	0.568621
446	H	0.464733	0.76403	0.568621
447	C	0.231869	0.867682	0.67462
448	H	0.271705	0.887599	0.674607
449	C	0.39936	0.701429	0.674448
450	C	0.371169	0.646324	0.674258
451	C	0.316063	0.618134	0.674448
452	C	0.289147	0.646324	0.674252
453	C	0.316064	0.701429	0.674448
454	C	0.37117	0.728344	0.674255
455	H	0.249312	0.626407	0.67417
456	H	0.391087	0.768178	0.67417
457	H	0.391085	0.626403	0.67417
458	C	0.232606	0.78488	0.674579
459	C	0.246586	0.770904	0.71641
460	C	0.274479	0.743013	0.716241
461	C	0.288334	0.729161	0.674296
462	C	0.274367	0.743126	0.965852
463	C	0.246475	0.771017	0.965991
464	C	0.290131	0.727372	0.759316
465	H	0.279003	0.738499	0.790503
466	H	0.332334	0.74491	0.760431
467	H	0.272598	0.685171	0.760434
468	C	0.23234	0.785145	0.760806
469	H	0.267579	0.80991	0.780065
470	C	0.28858	0.728916	0.921325
471	H	0.309685	0.707821	0.923724
472	H	0.313291	0.764038	0.901951
473	H	0.253463	0.704201	0.901954
474	C	0.232192	0.785293	0.921514
475	H	0.267283	0.810034	0.90212
476	C	0.232611	0.951223	0.674579
477	C	0.246589	0.97918	0.71641
478	C	0.274477	0.534962	0.716241
479	C	0.28833	0.56267	0.674296
480	C	0.274366	0.534741	0.965852
481	C	0.246478	0.978958	0.965991
482	C	0.290121	0.566259	0.759316
483	H	0.278991	0.544001	0.790503
484	H	0.272582	0.590923	0.760431
485	H	0.332322	0.590927	0.760434
486	C	0.23235	0.950694	0.760806
487	H	0.267592	0.961176	0.780065
488	C	0.288572	0.56316	0.921325
489	H	0.309668	0.605362	0.923724
490	H	0.253455	0.552753	0.901951
491	H	0.313289	0.552761	0.901951
492	C	0.2322	0.950395	0.921514
493	H	0.267293	0.960756	0.90212
494	C	0.482529	0.743013	0.716244
495	C	0.45482	0.729157	0.674299
496	C	0.482752	0.743126	0.965852
497	C	0.451235	0.727365	0.759316
498	H	0.473492	0.738495	0.790503
499	H	0.426568	0.685163	0.760434
500	H	0.426569	0.744902	0.760434
501	C	0.454328	0.728912	0.921325
502	H	0.412129	0.707813	0.923724
503	H	0.464735	0.704201	0.901954
504	H	0.464733	0.76403	0.901954
505	C	0.621653	0.312576	0.00795
506	C	0.64981	0.367685	0.007952
507	C	0.704917	0.395842	0.00795
508	C	0.73187	0.367682	0.007952
509	C	0.704915	0.312574	0.00795
510	C	0.649808	0.285623	0.007952
511	H	0.771703	0.3876	0.007942
512	H	0.62989	0.245787	0.007941
513	H	0.629891	0.387603	0.007941
514	C	0.899359	0.201428	0.007783
515	C	0.871167	0.146322	0.007592
516	C	0.816063	0.118133	0.007781
517	C	0.789146	0.146324	0.007587
518	C	0.816063	0.20143	0.007781
519	C	0.871169	0.228345	0.007587
520	H	0.749313	0.126407	0.007503
521	H	0.891087	0.26818	0.007504
522	H	0.891085	0.126404	0.007503
523	C	0.732607	0.284882	0.007914
524	C	0.746587	0.270904	0.049744
525	C	0.77448	0.243015	0.049576
526	C	0.788334	0.229162	0.00763
527	C	0.774367	0.243127	0.299185
528	C	0.746474	0.271016	0.299325
529	C	0.790129	0.227371	0.09265
530	H	0.779003	0.238499	0.123837
531	H	0.832331	0.244908	0.093764
532	H	0.772596	0.185169	0.093767
533	C	0.732338	0.285145	0.09414
534	H	0.711234	0.306243	0.091828
535	H	0.767579	0.309911	0.113398
536	H	0.707579	0.249904	0.113398
537	C	0.788582	0.228917	0.254657
538	H	0.809683	0.207822	0.257057
539	H	0.813289	0.264037	0.235286
540	H	0.753464	0.204202	0.235286
541	C	0.73219	0.285293	0.254847
542	H	0.71109	0.306386	0.257301
543	H	0.707455	0.250201	0.235452
544	H	0.767283	0.310034	0.235453
545	C	0.732612	0.451223	0.007914
546	C	0.74659	0.47918	0.049743
547	C	0.774478	0.034964	0.049576
548	C	0.788329	0.062671	0.00763
549	C	0.774363	0.03474	0.299185
550	C	0.746474	0.478955	0.299325
551	C	0.790118	0.066257	0.09265
552	H	0.778991	0.044002	0.123837
553	H	0.772579	0.090922	0.093763
554	H	0.832321	0.090927	0.093767
555	C	0.732351	0.450695	0.09414
556	H	0.711251	0.408489	0.091828
557	H	0.707583	0.461164	0.113398
558	H	0.76759	0.461176	0.113397
559	C	0.788571	0.063162	0.254657
560	H	0.809667	0.105362	0.257057
561	H	0.753454	0.052751	0.235286
562	H	0.813289	0.052761	0.235286
563	C	0.732201	0.450395	0.254846
564	H	0.711109	0.408205	0.257301
565	H	0.767293	0.460756	0.235452
566	H	0.707457	0.460745	0.235453
567	C	0.56627	0.284885	0.007914
568	C	0.538311	0.270906	0.049744
569	C	0.982527	0.243013	0.049577
570	C	0.954819	0.229159	0.007631
571	C	0.982752	0.243125	0.299186
572	C	0.538535	0.271017	0.299325
573	C	0.951236	0.227366	0.092651
574	H	0.97349	0.238494	0.123838
575	H	0.92657	0.185164	0.093767
576	H	0.926567	0.244902	0.093767
577	C	0.566799	0.285149	0.094139
578	H	0.609003	0.306252	0.091827
579	H	0.556323	0.249909	0.113397
580	H	0.556322	0.309912	0.113398
581	C	0.95433	0.228914	0.254658
582	H	0.91213	0.207813	0.257058
583	H	0.964735	0.204202	0.235286
584	H	0.964734	0.264032	0.235287
585	C	0.567095	0.285297	0.254846
586	H	0.609286	0.306395	0.2573
587	H	0.55674	0.310034	0.235452
588	H	0.556741	0.250205	0.235453
589	C	0.621653	0.312576	0.341283
590	C	0.64981	0.367685	0.341287
591	C	0.704917	0.395842	0.341283
592	C	0.73187	0.367682	0.341287
593	C	0.704915	0.312574	0.341283
594	C	0.649808	0.285623	0.341287
595	H	0.771703	0.3876	0.341276
596	H	0.62989	0.245787	0.341273
597	H	0.629891	0.387603	0.341273
598	C	0.899359	0.201428	0.341118
599	C	0.871167	0.146322	0.340925
600	C	0.816063	0.118133	0.341114
601	C	0.789146	0.146324	0.340918
602	C	0.816063	0.20143	0.341114
603	C	0.871169	0.228345	0.340922
604	H	0.749313	0.126407	0.340837
605	H	0.891087	0.26818	0.340837
606	H	0.891085	0.126404	0.340837
607	C	0.732607	0.284882	0.341246
608	C	0.746587	0.270904	0.383077
609	C	0.77448	0.243015	0.382911
610	C	0.788334	0.229162	0.340962
611	C	0.774367	0.243127	0.632519
612	C	0.746474	0.271016	0.632658
613	C	0.790129	0.227371	0.425982
614	H	0.779003	0.238499	0.457169
615	H	0.832331	0.244908	0.427097
616	H	0.772596	0.185169	0.427101
617	C	0.732338	0.285145	0.427473
618	H	0.711234	0.306243	0.425161
619	H	0.767579	0.309911	0.446732
620	H	0.707579	0.249904	0.446732
621	C	0.788582	0.228917	0.587991
622	H	0.809683	0.207822	0.590391
623	H	0.813289	0.264037	0.568617
624	H	0.753464	0.204202	0.568621
625	C	0.73219	0.285293	0.58818
626	H	0.71109	0.306386	0.590634
627	H	0.707455	0.250201	0.568786
628	H	0.767283	0.310034	0.568786
629	C	0.732612	0.451223	0.341246
630	C	0.74659	0.47918	0.383077
631	C	0.774478	0.034964	0.382908
632	C	0.788329	0.062671	0.340962
633	C	0.774363	0.03474	0.632519
634	C	0.746474	0.478955	0.632658
635	C	0.790118	0.066257	0.425982
636	H	0.778991	0.044002	0.457169
637	H	0.772579	0.090922	0.427097
638	H	0.832321	0.090927	0.427101
639	C	0.732351	0.450695	0.427473
640	H	0.711251	0.408489	0.425161
641	H	0.707583	0.461164	0.446732
642	H	0.76759	0.461176	0.446732
643	C	0.788571	0.063162	0.587991
644	H	0.809667	0.105362	0.590391
645	H	0.753454	0.052751	0.568617
646	H	0.813289	0.052761	0.568621
647	C	0.732201	0.450395	0.58818
648	H	0.711109	0.408205	0.590634
649	H	0.767293	0.460756	0.568786
650	H	0.707457	0.460745	0.568786
651	C	0.56627	0.284885	0.341246
652	C	0.538311	0.270906	0.383077
653	C	0.982527	0.243013	0.382911
654	C	0.954819	0.229159	0.340965
655	C	0.982752	0.243125	0.632519
656	C	0.538535	0.271017	0.632658
657	C	0.951236	0.227366	0.425985
658	H	0.97349	0.238494	0.457169
659	H	0.92657	0.185164	0.427101
660	H	0.926567	0.244902	0.427101
661	C	0.566799	0.285149	0.427473
662	H	0.609003	0.306252	0.425161
663	H	0.556323	0.249909	0.446732
664	H	0.556322	0.309912	0.446732
665	C	0.95433	0.228914	0.587991
666	H	0.91213	0.207813	0.590391
667	H	0.964735	0.204202	0.568621
668	H	0.964734	0.264032	0.568621
669	C	0.567095	0.285297	0.58818
670	H	0.609286	0.306395	0.590634
671	H	0.55674	0.310034	0.568786
672	H	0.556741	0.250205	0.568786
673	C	0.621653	0.312576	0.674617
674	C	0.64981	0.367685	0.674617
675	C	0.704917	0.395842	0.674617
676	C	0.73187	0.367682	0.67462
677	C	0.704915	0.312574	0.674617
678	C	0.649808	0.285623	0.67462
679	H	0.771703	0.3876	0.674607
680	H	0.62989	0.245787	0.674607
681	H	0.629891	0.387603	0.674607
682	C	0.899359	0.201428	0.674448
683	C	0.871167	0.146322	0.674258
684	C	0.816063	0.118133	0.674448
685	C	0.789146	0.146324	0.674252
686	C	0.816063	0.20143	0.674448
687	C	0.871169	0.228345	0.674255
688	H	0.749313	0.126407	0.67417
689	H	0.891087	0.26818	0.67417
690	H	0.891085	0.126404	0.67417
691	C	0.732607	0.284882	0.674579
692	C	0.746587	0.270904	0.71641
693	C	0.77448	0.243015	0.716241
694	C	0.788334	0.229162	0.674296
695	C	0.774367	0.243127	0.965852
696	C	0.746474	0.271016	0.965991
697	C	0.790129	0.227371	0.759316
698	H	0.779003	0.238499	0.790503
699	H	0.832331	0.244908	0.760431
700	H	0.772596	0.185169	0.760434
701	C	0.732338	0.285145	0.760806
702	H	0.711234	0.306243	0.758494
703	H	0.767579	0.309911	0.780065
704	H	0.707579	0.249904	0.780065
705	C	0.788582	0.228917	0.921325
706	H	0.809683	0.207822	0.923724
707	H	0.813289	0.264037	0.901951
708	H	0.753464	0.204202	0.901954
709	C	0.73219	0.285293	0.921514
710	H	0.71109	0.306386	0.923968
711	H	0.707455	0.250201	0.90212
712	H	0.767283	0.310034	0.90212
713	C	0.732612	0.451223	0.674579
714	C	0.74659	0.47918	0.71641
715	C	0.774478	0.034964	0.716241
716	C	0.788329	0.062671	0.674296
717	C	0.774363	0.03474	0.965852
718	C	0.746474	0.478955	0.965991
719	C	0.790118	0.066257	0.759316
720	H	0.778991	0.044002	0.790503
721	H	0.772579	0.090922	0.760431
722	H	0.832321	0.090927	0.760434
723	C	0.732351	0.450695	0.760806
724	H	0.711251	0.408489	0.758494
725	H	0.707583	0.461164	0.780065
726	H	0.76759	0.461176	0.780065
727	C	0.788571	0.063162	0.921325
728	H	0.809667	0.105362	0.923724
729	H	0.753454	0.052751	0.901951
730	H	0.813289	0.052761	0.901951
731	C	0.732201	0.450395	0.921514
732	H	0.711109	0.408205	0.923968
733	H	0.767293	0.460756	0.90212
734	H	0.707457	0.460745	0.90212
735	C	0.56627	0.284885	0.674579
736	C	0.538311	0.270906	0.71641
737	C	0.982527	0.243013	0.716244
738	C	0.954819	0.229159	0.674299
739	C	0.982752	0.243125	0.965852
740	C	0.538535	0.271017	0.965991
741	C	0.951236	0.227366	0.759316
742	H	0.97349	0.238494	0.790503
743	H	0.92657	0.185164	0.760434
744	H	0.926567	0.244902	0.760434
745	C	0.566799	0.285149	0.760806
746	H	0.609003	0.306252	0.758494
747	H	0.556323	0.249909	0.780065
748	H	0.556322	0.309912	0.780065
749	C	0.95433	0.228914	0.921325
750	H	0.91213	0.207813	0.923724
751	H	0.964735	0.204202	0.901954
752	H	0.964734	0.264032	0.901954
753	C	0.567095	0.285297	0.921514
754	H	0.609286	0.306395	0.923968
755	H	0.55674	0.310034	0.90212
756	H	0.556741	0.250205	0.90212
757	C	0.621652	0.812577	0.00795
758	C	0.64981	0.867686	0.007952
759	C	0.704919	0.895841	0.00795
760	C	0.731869	0.867682	0.007952
761	C	0.704916	0.812573	0.00795
762	C	0.649807	0.785623	0.007952
763	H	0.771704	0.887599	0.007942
764	H	0.629889	0.745789	0.007941
765	H	0.629893	0.887603	0.007941
766	C	0.89936	0.701429	0.007783
767	C	0.871167	0.646324	0.007592
768	C	0.816063	0.618134	0.007781
769	C	0.789146	0.646324	0.007587
770	C	0.816062	0.701429	0.007781
771	C	0.871169	0.728344	0.007587
772	H	0.749313	0.626407	0.007503
773	H	0.891086	0.768178	0.007504
774	H	0.891085	0.626403	0.007503
775	C	0.732606	0.78488	0.007914
776	C	0.746587	0.770904	0.049744
777	C	0.774479	0.743013	0.049576
778	C	0.788333	0.729161	0.00763
779	C	0.774367	0.743126	0.299185
780	C	0.746475	0.771017	0.299325
781	C	0.790129	0.727372	0.09265
782	H	0.779003	0.738499	0.123837
783	H	0.832332	0.74491	0.093764
784	H	0.772597	0.685171	0.093767
785	C	0.732341	0.785145	0.09414
786	H	0.711234	0.806244	0.091828
787	H	0.767578	0.80991	0.113398
788	H	0.707578	0.749902	0.113398
789	C	0.788581	0.728916	0.254657
790	H	0.809683	0.707821	0.257057
791	H	0.81329	0.764038	0.235286
792	H	0.753464	0.704201	0.235286
793	C	0.732193	0.785293	0.254847
794	H	0.71109	0.806384	0.257301
795	H	0.707457	0.750201	0.235452
796	H	0.767283	0.810034	0.235453
797	C	0.732611	0.951223	0.007914
798	C	0.746588	0.97918	0.049743
799	C	0.774478	0.534962	0.049576
800	C	0.788328	0.56267	0.00763
801	C	0.774367	0.534741	0.299185
802	C	0.746478	0.978958	0.299325
803	C	0.790119	0.566259	0.09265
804	H	0.77899	0.544001	0.123837
805	H	0.77258	0.590923	0.093763
806	H	0.832321	0.590927	0.093767
807	C	0.73235	0.950694	0.09414
808	H	0.711252	0.908488	0.091828
809	H	0.707582	0.961164	0.113398
810	H	0.767591	0.961176	0.113397
811	C	0.788573	0.56316	0.254657
812	H	0.809667	0.605362	0.257057
813	H	0.753454	0.552753	0.235286
814	H	0.813288	0.552761	0.235286
815	C	0.732199	0.950395	0.254846
816	H	0.71111	0.908205	0.257301
817	H	0.767293	0.960756	0.235452
818	H	0.707458	0.960744	0.235453
819	C	0.566269	0.784884	0.007914
820	C	0.538311	0.770904	0.049744
821	C	0.982527	0.743013	0.049577
822	C	0.954818	0.729157	0.007631
823	C	0.982752	0.743126	0.299186
824	C	0.538534	0.771017	0.299325
825	C	0.951235	0.727365	0.092651
826	H	0.973491	0.738495	0.123838
827	H	0.926569	0.685163	0.093767
828	H	0.926568	0.744902	0.093767
829	C	0.5668	0.785149	0.094139
830	H	0.609003	0.806252	0.091827
831	H	0.556324	0.74991	0.113397
832	H	0.556324	0.809914	0.113398
833	C	0.954329	0.728912	0.254658
834	H	0.91213	0.707813	0.257058
835	H	0.964734	0.704201	0.235286
836	H	0.964733	0.76403	0.235287
837	C	0.567094	0.785296	0.254846
838	H	0.609288	0.806395	0.2573
839	H	0.55674	0.810034	0.235452
840	H	0.556741	0.750205	0.235453
841	C	0.621652	0.812577	0.341283
842	C	0.64981	0.867686	0.341287
843	C	0.704919	0.895841	0.341283
844	C	0.731869	0.867682	0.341287
845	C	0.704916	0.812573	0.341283
846	C	0.649807	0.785623	0.341287
847	H	0.771704	0.887599	0.341276
848	H	0.629889	0.745789	0.341273
849	H	0.629893	0.887603	0.341273
850	C	0.89936	0.701429	0.341118
851	C	0.871167	0.646324	0.340925
852	C	0.816063	0.618134	0.341114
853	C	0.789146	0.646324	0.340918
854	C	0.816062	0.701429	0.341114
855	C	0.871169	0.728344	0.340922
856	H	0.749313	0.626407	0.340837
857	H	0.891086	0.768178	0.340837
858	H	0.891085	0.626403	0.340837
859	C	0.732606	0.78488	0.341246
860	C	0.746587	0.770904	0.383077
861	C	0.774479	0.743013	0.382911
862	C	0.788333	0.729161	0.340962
863	C	0.774367	0.743126	0.632519
864	C	0.746475	0.771017	0.632658
865	C	0.790129	0.727372	0.425982
866	H	0.779003	0.738499	0.457169
867	H	0.832332	0.74491	0.427097
868	H	0.772597	0.685171	0.427101
869	C	0.732341	0.785145	0.427473
870	H	0.711234	0.806244	0.425161
871	H	0.767578	0.80991	0.446732
872	H	0.707578	0.749902	0.446732
873	C	0.788581	0.728916	0.587991
874	H	0.809683	0.707821	0.590391
875	H	0.81329	0.764038	0.568617
876	H	0.753464	0.704201	0.568621
877	C	0.732193	0.785293	0.58818
878	H	0.71109	0.806384	0.590634
879	H	0.707457	0.750201	0.568786
880	H	0.767283	0.810034	0.568786
881	C	0.732611	0.951223	0.341246
882	C	0.746588	0.97918	0.383077
883	C	0.774478	0.534962	0.382908
884	C	0.788328	0.56267	0.340962
885	C	0.774367	0.534741	0.632519
886	C	0.746478	0.978958	0.632658
887	C	0.790119	0.566259	0.425982
888	H	0.77899	0.544001	0.457169
889	H	0.77258	0.590923	0.427097
890	H	0.832321	0.590927	0.427101
891	C	0.73235	0.950694	0.427473
892	H	0.711252	0.908488	0.425161
893	H	0.707582	0.961164	0.446732
894	H	0.767591	0.961176	0.446732
895	C	0.788573	0.56316	0.587991
896	H	0.809667	0.605362	0.590391
897	H	0.753454	0.552753	0.568617
898	H	0.813288	0.552761	0.568621
899	C	0.732199	0.950395	0.58818
900	H	0.71111	0.908205	0.590634
901	H	0.767293	0.960756	0.568786
902	H	0.707458	0.960744	0.568786
903	C	0.566269	0.784884	0.341246
904	C	0.538311	0.770904	0.383077
905	C	0.982527	0.743013	0.382911
906	C	0.954818	0.729157	0.340965
907	C	0.982752	0.743126	0.632519
908	C	0.538534	0.771017	0.632658
909	C	0.951235	0.727365	0.425985
910	H	0.973491	0.738495	0.457169
911	H	0.926569	0.685163	0.427101
912	H	0.926568	0.744902	0.427101
913	C	0.5668	0.785149	0.427473
914	H	0.609003	0.806252	0.425161
915	H	0.556324	0.74991	0.446732
916	H	0.556324	0.809914	0.446732
917	C	0.954329	0.728912	0.587991
918	H	0.91213	0.707813	0.590391
919	H	0.964734	0.704201	0.568621
920	H	0.964733	0.76403	0.568621
921	C	0.567094	0.785296	0.58818
922	H	0.609288	0.806395	0.590634
923	H	0.55674	0.810034	0.568786
924	H	0.556741	0.750205	0.568786
925	C	0.621652	0.812577	0.674617
926	C	0.64981	0.867686	0.674617
927	C	0.704919	0.895841	0.674617
928	C	0.731869	0.867682	0.67462
929	C	0.704916	0.812573	0.674617
930	C	0.649807	0.785623	0.67462
931	H	0.771704	0.887599	0.674607
932	H	0.629889	0.745789	0.674607
933	H	0.629893	0.887603	0.674607
934	C	0.89936	0.701429	0.674448
935	C	0.871167	0.646324	0.674258
936	C	0.816063	0.618134	0.674448
937	C	0.789146	0.646324	0.674252
938	C	0.816062	0.701429	0.674448
939	C	0.871169	0.728344	0.674255
940	H	0.749313	0.626407	0.67417
941	H	0.891086	0.768178	0.67417
942	H	0.891085	0.626403	0.67417
943	C	0.732606	0.78488	0.674579
944	C	0.746587	0.770904	0.71641
945	C	0.774479	0.743013	0.716241
946	C	0.788333	0.729161	0.674296
947	C	0.774367	0.743126	0.965852
948	C	0.746475	0.771017	0.965991
949	C	0.790129	0.727372	0.759316
950	H	0.779003	0.738499	0.790503
951	H	0.832332	0.74491	0.760431
952	H	0.772597	0.685171	0.760434
953	C	0.732341	0.785145	0.760806
954	H	0.711234	0.806244	0.758494
955	H	0.767578	0.80991	0.780065
956	H	0.707578	0.749902	0.780065
957	C	0.788581	0.728916	0.921325
958	H	0.809683	0.707821	0.923724
959	H	0.81329	0.764038	0.901951
960	H	0.753464	0.704201	0.901954
961	C	0.732193	0.785293	0.921514
962	H	0.71109	0.806384	0.923968
963	H	0.707457	0.750201	0.90212
964	H	0.767283	0.810034	0.90212
965	C	0.732611	0.951223	0.674579
966	C	0.746588	0.97918	0.71641
967	C	0.774478	0.534962	0.716241
968	C	0.788328	0.56267	0.674296
969	C	0.774367	0.534741	0.965852
970	C	0.746478	0.978958	0.965991
971	C	0.790119	0.566259	0.759316
972	H	0.77899	0.544001	0.790503
973	H	0.77258	0.590923	0.760431
974	H	0.832321	0.590927	0.760434
975	C	0.73235	0.950694	0.760806
976	H	0.711252	0.908488	0.758494
977	H	0.707582	0.961164	0.780065
978	H	0.767591	0.961176	0.780065
979	C	0.788573	0.56316	0.921325
980	H	0.809667	0.605362	0.923724
981	H	0.753454	0.552753	0.901951
982	H	0.813288	0.552761	0.901951
983	C	0.732199	0.950395	0.921514
984	H	0.71111	0.908205	0.923968
985	H	0.767293	0.960756	0.90212
986	H	0.707458	0.960744	0.90212
987	C	0.566269	0.784884	0.674579
988	C	0.538311	0.770904	0.71641
989	C	0.982527	0.743013	0.716244
990	C	0.954818	0.729157	0.674299
991	C	0.982752	0.743126	0.965852
992	C	0.538534	0.771017	0.965991
993	C	0.951235	0.727365	0.759316
994	H	0.973491	0.738495	0.790503
995	H	0.926569	0.685163	0.760434
996	H	0.926568	0.744902	0.760434
997	C	0.5668	0.785149	0.760806
998	H	0.609003	0.806252	0.758494
999	H	0.556324	0.74991	0.780065
1000	H	0.556324	0.809914	0.780065
1001	C	0.954329	0.728912	0.921325
1002	H	0.91213	0.707813	0.923724
1003	H	0.964734	0.704201	0.901954
1004	H	0.964733	0.76403	0.901954
1005	C	0.567094	0.785296	0.921514
1006	H	0.609288	0.806395	0.923968
1007	H	0.55674	0.810034	0.90212
1008	H	0.556741	0.750205	0.90212
