data_C576H432N288_2018-02-15_10:37:47
#******************************************
#
# CIF file created by Zeo++
# Zeo++ is an open source package to
# analyze microporous materials
#
#*******************************************

_cell_length_a		44.5768   
_cell_length_b		44.5813   
_cell_length_c		29.5686   
_cell_angle_alpha		90   
_cell_angle_beta		90   
_cell_angle_gamma		120.01   

_symmetry_space_group_name_H-M		'P1'
_symmetry_Int_Tables_number		1
_symmetry_cell_setting		Monoclinic

loop_
_symmetry_equiv_pos_as_xyz
'+x,+y,+z'

loop_
_atom_site_label
_atom_site_type_symbol
_atom_site_fract_x
_atom_site_fract_y
_atom_site_fract_z
1	N	0.025861	0.041067	0.007757
2	C	0.043871	0.023784	0.007547
3	N	0.025864	0.488488	0.007772
4	C	0.085901	0.044509	0.095822
5	C	0.100426	0.051881	0.049527
6	H	0.094804	0.029002	0.113738
7	H	0.05766	0.030424	0.096143
8	H	0.094873	0.068834	0.113981
9	N	0.135669	0.069496	0.045798
10	C	0.133556	0.06882	0.299023
11	C	0.149302	0.076853	0.253448
12	H	0.129497	0.067039	0.227082
13	N	0.098311	0.05118	0.302687
14	C	0.080563	0.04213	0.009107
15	N	0.025861	0.041067	0.341092
16	C	0.043871	0.023784	0.340879
17	N	0.025864	0.488488	0.341105
18	C	0.085901	0.044509	0.429155
19	C	0.100426	0.051881	0.382859
20	H	0.094804	0.029002	0.447072
21	H	0.05766	0.030424	0.429476
22	H	0.094873	0.068834	0.447316
23	N	0.135669	0.069496	0.379132
24	C	0.133556	0.06882	0.632357
25	C	0.149302	0.076853	0.586781
26	H	0.129497	0.067039	0.560416
27	N	0.098311	0.05118	0.636019
28	C	0.080563	0.04213	0.342441
29	N	0.025861	0.041067	0.674425
30	C	0.043871	0.023784	0.674212
31	N	0.025864	0.488488	0.674439
32	C	0.085901	0.044509	0.762488
33	C	0.100426	0.051881	0.716192
34	H	0.094804	0.029002	0.780406
35	H	0.05766	0.030424	0.762809
36	H	0.094873	0.068834	0.780649
37	N	0.135669	0.069496	0.712465
38	C	0.133556	0.06882	0.96569
39	C	0.149302	0.076853	0.920115
40	H	0.129497	0.067039	0.893749
41	N	0.098311	0.05118	0.969353
42	C	0.080563	0.04213	0.675774
43	N	0.025861	0.541067	0.007757
44	C	0.043871	0.523784	0.007547
45	N	0.025863	0.988487	0.007772
46	C	0.085901	0.544509	0.095822
47	C	0.100426	0.551881	0.049527
48	H	0.094804	0.529003	0.113738
49	H	0.05766	0.530425	0.096143
50	H	0.094873	0.568833	0.113981
51	N	0.135668	0.569496	0.045798
52	C	0.133556	0.56882	0.299023
53	C	0.149302	0.576852	0.253448
54	H	0.129496	0.567038	0.227082
55	N	0.098311	0.551179	0.302687
56	C	0.080563	0.542131	0.009107
57	N	0.025861	0.541067	0.341092
58	C	0.043871	0.523784	0.340879
59	N	0.025863	0.988487	0.341105
60	C	0.085901	0.544509	0.429155
61	C	0.100426	0.551881	0.382859
62	H	0.094804	0.529003	0.447072
63	H	0.05766	0.530425	0.429476
64	H	0.094873	0.568833	0.447316
65	N	0.135668	0.569496	0.379132
66	C	0.133556	0.56882	0.632357
67	C	0.149302	0.576852	0.586781
68	H	0.129496	0.567038	0.560416
69	N	0.098311	0.551179	0.636019
70	C	0.080563	0.542131	0.342441
71	N	0.025861	0.541067	0.674425
72	C	0.043871	0.523784	0.674212
73	N	0.025863	0.988487	0.674439
74	C	0.085901	0.544509	0.762488
75	C	0.100426	0.551881	0.716192
76	H	0.094804	0.529003	0.780406
77	H	0.05766	0.530425	0.762809
78	H	0.094873	0.568833	0.780649
79	N	0.135668	0.569496	0.712465
80	C	0.133556	0.56882	0.96569
81	C	0.149302	0.576852	0.920115
82	H	0.129496	0.567038	0.893749
83	N	0.098311	0.551179	0.969353
84	C	0.080563	0.542131	0.675774
85	C	0.243248	0.15025	0.006511
86	N	0.207947	0.132378	0.006254
87	C	0.190114	0.096957	0.00715
88	N	0.208125	0.079547	0.007933
89	C	0.243431	0.09718	0.008
90	C	0.153403	0.078524	0.339384
91	H	0.165367	0.104836	0.249309
92	H	0.16536	0.064959	0.249003
93	H	0.244351	0.063843	0.100511
94	H	0.246226	0.166259	0.251277
95	C	0.243248	0.15025	0.339844
96	N	0.207947	0.132378	0.33959
97	C	0.190114	0.096957	0.340486
98	N	0.208125	0.079547	0.341268
99	C	0.243431	0.09718	0.341332
100	C	0.153403	0.078524	0.672717
101	H	0.165367	0.104836	0.582642
102	H	0.16536	0.064959	0.582338
103	H	0.244351	0.063843	0.433845
104	H	0.246226	0.166259	0.58461
105	C	0.243248	0.15025	0.673177
106	N	0.207947	0.132378	0.672923
107	C	0.190114	0.096957	0.67382
108	N	0.208125	0.079547	0.674601
109	C	0.243431	0.09718	0.674665
110	C	0.153403	0.078524	0.006051
111	H	0.165367	0.104836	0.915975
112	H	0.16536	0.064959	0.915671
113	H	0.244351	0.063843	0.767179
114	H	0.246226	0.166259	0.917944
115	C	0.243248	0.65025	0.006511
116	N	0.207947	0.632377	0.006254
117	C	0.190113	0.596956	0.00715
118	N	0.208124	0.579546	0.007933
119	C	0.243432	0.597182	0.008
120	C	0.153403	0.578523	0.339384
121	H	0.165367	0.604836	0.249309
122	H	0.16536	0.56496	0.249003
123	H	0.244351	0.563844	0.100511
124	H	0.246226	0.666259	0.251277
125	C	0.243248	0.65025	0.339844
126	N	0.207947	0.632377	0.33959
127	C	0.190113	0.596956	0.340486
128	N	0.208124	0.579546	0.341268
129	C	0.243432	0.597182	0.341332
130	C	0.153403	0.578523	0.672717
131	H	0.165367	0.604836	0.582642
132	H	0.16536	0.56496	0.582338
133	H	0.244351	0.563844	0.433845
134	H	0.246226	0.666259	0.58461
135	C	0.243248	0.65025	0.673177
136	N	0.207947	0.632377	0.672923
137	C	0.190113	0.596956	0.67382
138	N	0.208124	0.579546	0.674601
139	C	0.243432	0.597182	0.674665
140	C	0.153403	0.578523	0.006051
141	H	0.165367	0.604836	0.915975
142	H	0.16536	0.56496	0.915671
143	H	0.244351	0.563844	0.767179
144	H	0.246226	0.666259	0.917944
145	N	0.260201	0.13219	0.007194
146	C	0.324588	0.085575	0.251776
147	C	0.310549	0.082147	0.298023
148	H	0.305265	0.064995	0.230456
149	N	0.28089	0.083605	0.302245
150	C	0.26508	0.082514	0.008684
151	C	0.28216	0.081933	0.04887
152	C	0.270664	0.08506	0.094694
153	H	0.271082	0.109633	0.098088
154	H	0.287476	0.083963	0.120709
155	N	0.312975	0.082737	0.044619
156	C	0.327823	0.081786	0.338166
157	C	0.271604	0.189698	0.251936
158	C	0.282211	0.203783	0.298165
159	H	0.270379	0.209006	0.230557
160	H	0.290593	0.18368	0.237788
161	N	0.313354	0.233427	0.302351
162	C	0.328108	0.24927	0.008767
163	C	0.310469	0.232229	0.04899
164	C	0.325126	0.243839	0.094778
165	H	0.307243	0.227071	0.120848
166	N	0.280428	0.201423	0.044837
167	C	0.26466	0.186583	0.338386
168	N	0.260201	0.13219	0.340527
169	C	0.324588	0.085575	0.585111
170	C	0.310549	0.082147	0.631356
171	H	0.305265	0.064995	0.563787
172	N	0.28089	0.083605	0.63558
173	C	0.26508	0.082514	0.342018
174	C	0.28216	0.081933	0.382203
175	C	0.270664	0.08506	0.428028
176	H	0.271082	0.109633	0.431421
177	H	0.287476	0.083963	0.454043
178	N	0.312975	0.082737	0.377952
179	C	0.327823	0.081786	0.6715
180	C	0.271604	0.189698	0.58527
181	C	0.282211	0.203783	0.631498
182	H	0.270379	0.209006	0.563889
183	H	0.290593	0.18368	0.571123
184	N	0.313354	0.233427	0.635685
185	C	0.328108	0.24927	0.342099
186	C	0.310469	0.232229	0.382325
187	C	0.325126	0.243839	0.42811
188	H	0.307243	0.227071	0.454181
189	N	0.280428	0.201423	0.378172
190	C	0.26466	0.186583	0.67172
191	N	0.260201	0.13219	0.67386
192	C	0.324588	0.085575	0.918441
193	C	0.310549	0.082147	0.964689
194	H	0.305265	0.064995	0.897121
195	N	0.28089	0.083605	0.968913
196	C	0.26508	0.082514	0.675352
197	C	0.28216	0.081933	0.715536
198	C	0.270664	0.08506	0.761362
199	H	0.271082	0.109633	0.764754
200	H	0.287476	0.083963	0.787376
201	N	0.312975	0.082737	0.711285
202	C	0.327823	0.081786	0.004833
203	C	0.271604	0.189698	0.918603
204	C	0.282211	0.203783	0.964831
205	H	0.270379	0.209006	0.897222
206	H	0.290593	0.18368	0.904456
207	N	0.313354	0.233427	0.969018
208	C	0.328108	0.24927	0.675433
209	C	0.310469	0.232229	0.715658
210	C	0.325126	0.243839	0.761443
211	H	0.307243	0.227071	0.787515
212	N	0.280428	0.201423	0.711505
213	C	0.26466	0.186583	0.005053
214	N	0.260202	0.63219	0.007194
215	C	0.324587	0.585574	0.251776
216	C	0.310548	0.582147	0.298023
217	H	0.305264	0.564996	0.230456
218	N	0.28089	0.583606	0.302245
219	C	0.26508	0.582515	0.008684
220	C	0.282159	0.581932	0.04887
221	C	0.270665	0.585061	0.094694
222	H	0.271082	0.609633	0.098088
223	H	0.287477	0.583963	0.120709
224	N	0.312976	0.582738	0.044619
225	C	0.327823	0.581787	0.338166
226	C	0.271605	0.689699	0.251936
227	C	0.282211	0.703783	0.298165
228	H	0.27038	0.709007	0.230557
229	H	0.290594	0.683681	0.237788
230	N	0.313353	0.733427	0.302351
231	C	0.328107	0.749269	0.008767
232	C	0.310469	0.73223	0.04899
233	C	0.325126	0.74384	0.094778
234	H	0.307243	0.72707	0.120848
235	N	0.280428	0.701423	0.044837
236	C	0.26466	0.686583	0.338386
237	N	0.260202	0.63219	0.340527
238	C	0.324587	0.585574	0.585111
239	C	0.310548	0.582147	0.631356
240	H	0.305264	0.564996	0.563787
241	N	0.28089	0.583606	0.63558
242	C	0.26508	0.582515	0.342018
243	C	0.282159	0.581932	0.382203
244	C	0.270665	0.585061	0.428028
245	H	0.271082	0.609633	0.431421
246	H	0.287477	0.583963	0.454043
247	N	0.312976	0.582738	0.377952
248	C	0.327823	0.581787	0.6715
249	C	0.271605	0.689699	0.58527
250	C	0.282211	0.703783	0.631498
251	H	0.27038	0.709007	0.563889
252	H	0.290594	0.683681	0.571123
253	N	0.313353	0.733427	0.635685
254	C	0.328107	0.749269	0.342099
255	C	0.310469	0.73223	0.382325
256	C	0.325126	0.74384	0.42811
257	H	0.307243	0.72707	0.454181
258	N	0.280428	0.701423	0.378172
259	C	0.26466	0.686583	0.67172
260	N	0.260202	0.63219	0.67386
261	C	0.324587	0.585574	0.918441
262	C	0.310548	0.582147	0.964689
263	H	0.305264	0.564996	0.897121
264	N	0.28089	0.583606	0.968913
265	C	0.26508	0.582515	0.675352
266	C	0.282159	0.581932	0.715536
267	C	0.270665	0.585061	0.761362
268	H	0.271082	0.609633	0.764754
269	H	0.287477	0.583963	0.787376
270	N	0.312976	0.582738	0.711285
271	C	0.327823	0.581787	0.004833
272	C	0.271605	0.689699	0.918603
273	C	0.282211	0.703783	0.964831
274	H	0.27038	0.709007	0.897222
275	H	0.290594	0.683681	0.904456
276	N	0.313353	0.733427	0.969018
277	C	0.328107	0.749269	0.675433
278	C	0.310469	0.73223	0.715658
279	C	0.325126	0.74384	0.761443
280	H	0.307243	0.72707	0.787515
281	N	0.280428	0.701423	0.711505
282	C	0.26466	0.686583	0.005053
283	H	0.330199	0.270151	0.100492
284	H	0.330199	0.270151	0.433825
285	H	0.330199	0.270151	0.767159
286	H	0.330198	0.77015	0.100492
287	H	0.330198	0.77015	0.433825
288	H	0.330198	0.77015	0.767159
289	C	0.490562	0.470472	0.007554
290	N	0.473269	0.488475	0.007763
291	C	0.490559	0.023771	0.007537
292	C	0.364145	0.096711	0.006365
293	N	0.381997	0.07927	0.006108
294	C	0.417418	0.096843	0.007119
295	N	0.434848	0.132264	0.008032
296	C	0.417242	0.149955	0.008068
297	N	0.382226	0.131729	0.007177
298	C	0.417696	0.271123	0.006433
299	N	0.435123	0.306421	0.00622
300	C	0.417528	0.324243	0.007177
301	N	0.382101	0.306222	0.007994
302	C	0.36443	0.270921	0.008028
303	N	0.382675	0.25416	0.00716
304	C	0.469867	0.045108	0.095807
305	C	0.462485	0.052243	0.049511
306	H	0.485388	0.069526	0.113707
307	H	0.483944	0.030949	0.096132
308	H	0.445545	0.02976	0.113981
309	N	0.444878	0.069871	0.045777
310	C	0.435834	0.078556	0.33936
311	C	0.44552	0.068396	0.299003
312	C	0.437488	0.076103	0.253426
313	H	0.409502	0.064182	0.24929
314	H	0.447296	0.066107	0.227062
315	H	0.44939	0.104056	0.248974
316	N	0.463158	0.050795	0.302671
317	C	0.472216	0.042113	0.009093
318	C	0.469272	0.428456	0.095836
319	C	0.462119	0.413927	0.049544
320	H	0.444857	0.419537	0.113758
321	H	0.483417	0.456693	0.096152
322	H	0.484641	0.419504	0.113995
323	N	0.444503	0.378687	0.045821
324	C	0.4358	0.360951	0.339411
325	C	0.445929	0.380793	0.299046
326	C	0.438213	0.365044	0.253472
327	H	0.450145	0.348997	0.249328
328	H	0.448193	0.384847	0.227104
329	H	0.410256	0.348973	0.249037
330	N	0.463524	0.416035	0.302704
331	C	0.47222	0.433784	0.009121
332	H	0.348044	0.083673	0.251099
333	H	0.330565	0.110553	0.237573
334	C	0.428635	0.24248	0.251915
335	C	0.43223	0.232042	0.298189
336	H	0.449147	0.243681	0.230512
337	H	0.430523	0.26783	0.251133
338	H	0.403608	0.223415	0.237884
339	N	0.430772	0.200936	0.302547
340	C	0.431972	0.186265	0.009007
341	C	0.432514	0.204002	0.049085
342	C	0.429394	0.189395	0.094909
343	H	0.404849	0.165198	0.098285
344	H	0.430428	0.207284	0.120908
345	H	0.450651	0.184371	0.100765
346	N	0.431706	0.234003	0.044771
347	C	0.43263	0.24974	0.338285
348	H	0.349305	0.243464	0.098191
349	C	0.490562	0.470472	0.340885
350	N	0.473269	0.488475	0.341095
351	C	0.490559	0.023771	0.340872
352	C	0.364145	0.096711	0.339698
353	N	0.381997	0.07927	0.339441
354	C	0.417418	0.096843	0.340452
355	N	0.434848	0.132264	0.341366
356	C	0.417242	0.149955	0.341403
357	N	0.382226	0.131729	0.34051
358	C	0.417696	0.271123	0.339766
359	N	0.435123	0.306421	0.339553
360	C	0.417528	0.324243	0.34051
361	N	0.382101	0.306222	0.341328
362	C	0.36443	0.270921	0.341362
363	N	0.382675	0.25416	0.340493
364	C	0.469867	0.045108	0.429141
365	C	0.462485	0.052243	0.382842
366	H	0.485388	0.069526	0.447042
367	H	0.483944	0.030949	0.429466
368	H	0.445545	0.02976	0.447312
369	N	0.444878	0.069871	0.379112
370	C	0.435834	0.078556	0.672694
371	C	0.44552	0.068396	0.632337
372	C	0.437488	0.076103	0.586758
373	H	0.409502	0.064182	0.582622
374	H	0.447296	0.066107	0.560395
375	H	0.44939	0.104056	0.582307
376	N	0.463158	0.050795	0.636006
377	C	0.472216	0.042113	0.342428
378	C	0.469272	0.428456	0.429168
379	C	0.462119	0.413927	0.382876
380	H	0.444857	0.419537	0.447089
381	H	0.483417	0.456693	0.429486
382	H	0.484641	0.419504	0.447329
383	N	0.444503	0.378687	0.379156
384	C	0.4358	0.360951	0.672741
385	C	0.445929	0.380793	0.63238
386	C	0.438213	0.365044	0.586805
387	H	0.450145	0.348997	0.582662
388	H	0.448193	0.384847	0.560436
389	H	0.410256	0.348973	0.582371
390	N	0.463524	0.416035	0.636036
391	C	0.47222	0.433784	0.342455
392	H	0.348044	0.083673	0.584431
393	H	0.330565	0.110553	0.570906
394	C	0.428635	0.24248	0.585249
395	C	0.43223	0.232042	0.631521
396	H	0.449147	0.243681	0.563845
397	H	0.430523	0.26783	0.584465
398	H	0.403608	0.223415	0.571218
399	N	0.430772	0.200936	0.635881
400	C	0.431972	0.186265	0.34234
401	C	0.432514	0.204002	0.382419
402	C	0.429394	0.189395	0.428242
403	H	0.404849	0.165198	0.43162
404	H	0.430428	0.207284	0.454242
405	H	0.450651	0.184371	0.434099
406	N	0.431706	0.234003	0.378104
407	C	0.43263	0.24974	0.671615
408	H	0.349305	0.243464	0.431525
409	C	0.490562	0.470472	0.674219
410	N	0.473269	0.488475	0.674428
411	C	0.490559	0.023771	0.674202
412	C	0.364145	0.096711	0.673032
413	N	0.381997	0.07927	0.672775
414	C	0.417418	0.096843	0.673786
415	N	0.434848	0.132264	0.674699
416	C	0.417242	0.149955	0.674736
417	N	0.382226	0.131729	0.673843
418	C	0.417696	0.271123	0.673099
419	N	0.435123	0.306421	0.672886
420	C	0.417528	0.324243	0.673843
421	N	0.382101	0.306222	0.674662
422	C	0.36443	0.270921	0.674696
423	N	0.382675	0.25416	0.673826
424	C	0.469867	0.045108	0.762475
425	C	0.462485	0.052243	0.716175
426	H	0.485388	0.069526	0.780375
427	H	0.483944	0.030949	0.762799
428	H	0.445545	0.02976	0.780646
429	N	0.444878	0.069871	0.712442
430	C	0.435834	0.078556	0.006027
431	C	0.44552	0.068396	0.96567
432	C	0.437488	0.076103	0.920091
433	H	0.409502	0.064182	0.915955
434	H	0.447296	0.066107	0.893729
435	H	0.44939	0.104056	0.91564
436	N	0.463158	0.050795	0.969339
437	C	0.472216	0.042113	0.675761
438	C	0.469272	0.428456	0.762502
439	C	0.462119	0.413927	0.716209
440	H	0.444857	0.419537	0.780423
441	H	0.483417	0.456693	0.76282
442	H	0.484641	0.419504	0.780659
443	N	0.444503	0.378687	0.712486
444	C	0.4358	0.360951	0.006074
445	C	0.445929	0.380793	0.965714
446	C	0.438213	0.365044	0.920139
447	H	0.450145	0.348997	0.915996
448	H	0.448193	0.384847	0.893769
449	H	0.410256	0.348973	0.915705
450	N	0.463524	0.416035	0.96937
451	C	0.47222	0.433784	0.675788
452	H	0.348044	0.083673	0.917764
453	H	0.330565	0.110553	0.90424
454	C	0.428635	0.24248	0.918583
455	C	0.43223	0.232042	0.964855
456	H	0.449147	0.243681	0.897178
457	H	0.430523	0.26783	0.917798
458	H	0.403608	0.223415	0.904551
459	N	0.430772	0.200936	0.969214
460	C	0.431972	0.186265	0.675673
461	C	0.432514	0.204002	0.715753
462	C	0.429394	0.189395	0.761575
463	H	0.404849	0.165198	0.764954
464	H	0.430428	0.207284	0.787576
465	H	0.450651	0.184371	0.767433
466	N	0.431706	0.234003	0.711437
467	C	0.43263	0.24974	0.004948
468	H	0.349305	0.243464	0.764859
469	C	0.490563	0.970473	0.007554
470	N	0.473269	0.988474	0.007763
471	C	0.490558	0.523771	0.007537
472	C	0.364145	0.596713	0.006365
473	N	0.381996	0.579269	0.006108
474	C	0.417418	0.596842	0.007119
475	N	0.43485	0.632265	0.008032
476	C	0.417241	0.649955	0.008068
477	N	0.382226	0.631729	0.007177
478	C	0.417696	0.771124	0.006433
479	N	0.435122	0.806421	0.00622
480	C	0.417528	0.824242	0.007177
481	N	0.382102	0.806224	0.007994
482	C	0.364429	0.77092	0.008028
483	N	0.382675	0.75416	0.00716
484	C	0.469868	0.545108	0.095807
485	C	0.462485	0.552244	0.049511
486	H	0.485388	0.569527	0.113707
487	H	0.483944	0.530949	0.096132
488	H	0.445544	0.52976	0.113981
489	N	0.444877	0.569871	0.045777
490	C	0.435834	0.578554	0.33936
491	C	0.445521	0.568398	0.299003
492	C	0.437488	0.576104	0.253426
493	H	0.409503	0.564183	0.24929
494	H	0.447296	0.566108	0.227062
495	H	0.44939	0.604056	0.248974
496	N	0.463158	0.550796	0.302671
497	C	0.472217	0.542113	0.009093
498	C	0.469271	0.928455	0.095836
499	C	0.462119	0.913926	0.049544
500	H	0.444857	0.919536	0.113758
501	H	0.483416	0.956692	0.096152
502	H	0.484641	0.919503	0.113995
503	N	0.444502	0.878686	0.045821
504	C	0.4358	0.86095	0.339411
505	C	0.44593	0.880792	0.299046
506	C	0.438213	0.865046	0.253472
507	H	0.450146	0.848998	0.249328
508	H	0.448191	0.884846	0.227104
509	H	0.410256	0.848972	0.249037
510	N	0.463523	0.916034	0.302704
511	C	0.47222	0.933783	0.009121
512	H	0.348043	0.583673	0.251099
513	H	0.330565	0.610553	0.237573
514	C	0.428634	0.74248	0.251915
515	C	0.43223	0.732044	0.298189
516	H	0.449148	0.743682	0.230512
517	H	0.430523	0.767829	0.251133
518	H	0.403608	0.723415	0.237884
519	N	0.430772	0.700936	0.302547
520	C	0.431974	0.686267	0.009007
521	C	0.432514	0.704003	0.049085
522	C	0.429395	0.689396	0.094909
523	H	0.40485	0.665199	0.098285
524	H	0.430427	0.707285	0.120908
525	H	0.450652	0.684371	0.100765
526	N	0.431706	0.734004	0.044771
527	C	0.43263	0.749741	0.338285
528	H	0.349304	0.743464	0.098191
529	C	0.490563	0.970473	0.340885
530	N	0.473269	0.988474	0.341095
531	C	0.490558	0.523771	0.340872
532	C	0.364145	0.596713	0.339698
533	N	0.381996	0.579269	0.339441
534	C	0.417418	0.596842	0.340452
535	N	0.43485	0.632265	0.341366
536	C	0.417241	0.649955	0.341403
537	N	0.382226	0.631729	0.34051
538	C	0.417696	0.771124	0.339766
539	N	0.435122	0.806421	0.339553
540	C	0.417528	0.824242	0.34051
541	N	0.382102	0.806224	0.341328
542	C	0.364429	0.77092	0.341362
543	N	0.382675	0.75416	0.340493
544	C	0.469868	0.545108	0.429141
545	C	0.462485	0.552244	0.382842
546	H	0.485388	0.569527	0.447042
547	H	0.483944	0.530949	0.429466
548	H	0.445544	0.52976	0.447312
549	N	0.444877	0.569871	0.379112
550	C	0.435834	0.578554	0.672694
551	C	0.445521	0.568398	0.632337
552	C	0.437488	0.576104	0.586758
553	H	0.409503	0.564183	0.582622
554	H	0.447296	0.566108	0.560395
555	H	0.44939	0.604056	0.582307
556	N	0.463158	0.550796	0.636006
557	C	0.472217	0.542113	0.342428
558	C	0.469271	0.928455	0.429168
559	C	0.462119	0.913926	0.382876
560	H	0.444857	0.919536	0.447089
561	H	0.483416	0.956692	0.429486
562	H	0.484641	0.919503	0.447329
563	N	0.444502	0.878686	0.379156
564	C	0.4358	0.86095	0.672744
565	C	0.44593	0.880792	0.63238
566	C	0.438213	0.865046	0.586805
567	H	0.450146	0.848998	0.582662
568	H	0.448191	0.884846	0.560436
569	H	0.410256	0.848972	0.582371
570	N	0.463523	0.916034	0.636036
571	C	0.47222	0.933783	0.342455
572	H	0.348043	0.583673	0.584431
573	H	0.330565	0.610553	0.570906
574	C	0.428634	0.74248	0.585249
575	C	0.43223	0.732044	0.631521
576	H	0.449148	0.743682	0.563845
577	H	0.430523	0.767829	0.584465
578	H	0.403608	0.723415	0.571218
579	N	0.430772	0.700936	0.635881
580	C	0.431974	0.686267	0.34234
581	C	0.432514	0.704003	0.382419
582	C	0.429395	0.689396	0.428242
583	H	0.40485	0.665199	0.43162
584	H	0.430427	0.707285	0.454242
585	H	0.450652	0.684371	0.434099
586	N	0.431706	0.734004	0.378104
587	C	0.43263	0.749741	0.671615
588	H	0.349304	0.743464	0.431525
589	C	0.490563	0.970473	0.674219
590	N	0.473269	0.988474	0.674428
591	C	0.490558	0.523771	0.674202
592	C	0.364145	0.596713	0.673032
593	N	0.381996	0.579269	0.672775
594	C	0.417418	0.596842	0.673786
595	N	0.43485	0.632265	0.674699
596	C	0.417241	0.649955	0.674736
597	N	0.382226	0.631729	0.673843
598	C	0.417696	0.771124	0.673099
599	N	0.435122	0.806421	0.672886
600	C	0.417528	0.824242	0.673843
601	N	0.382102	0.806224	0.674662
602	C	0.364429	0.77092	0.674696
603	N	0.382675	0.75416	0.673826
604	C	0.469868	0.545108	0.762475
605	C	0.462485	0.552244	0.716175
606	H	0.485388	0.569527	0.780375
607	H	0.483944	0.530949	0.762799
608	H	0.445544	0.52976	0.780646
609	N	0.444877	0.569871	0.712442
610	C	0.435834	0.578554	0.006027
611	C	0.445521	0.568398	0.96567
612	C	0.437488	0.576104	0.920091
613	H	0.409503	0.564183	0.915955
614	H	0.447296	0.566108	0.893729
615	H	0.44939	0.604056	0.91564
616	N	0.463158	0.550796	0.969339
617	C	0.472217	0.542113	0.675761
618	C	0.469271	0.928455	0.762502
619	C	0.462119	0.913926	0.716209
620	H	0.444857	0.919536	0.780423
621	H	0.483416	0.956692	0.76282
622	H	0.484641	0.919503	0.780659
623	N	0.444502	0.878686	0.712486
624	C	0.4358	0.86095	0.006074
625	C	0.44593	0.880792	0.965714
626	C	0.438213	0.865046	0.920139
627	H	0.450146	0.848998	0.915996
628	H	0.448191	0.884846	0.893769
629	H	0.410256	0.848972	0.915705
630	N	0.463523	0.916034	0.96937
631	C	0.47222	0.933783	0.675788
632	H	0.348043	0.583673	0.917764
633	H	0.330565	0.610553	0.90424
634	C	0.428634	0.74248	0.918583
635	C	0.43223	0.732044	0.964855
636	H	0.449148	0.743682	0.897178
637	H	0.430523	0.767829	0.917798
638	H	0.403608	0.723415	0.904551
639	N	0.430772	0.700936	0.969214
640	C	0.431974	0.686267	0.675673
641	C	0.432514	0.704003	0.715753
642	C	0.429395	0.689396	0.761575
643	H	0.40485	0.665199	0.764954
644	H	0.430427	0.707285	0.787576
645	H	0.450652	0.684371	0.767433
646	N	0.431706	0.734004	0.711437
647	C	0.43263	0.749741	0.004948
648	H	0.349304	0.743464	0.764859
649	C	0.990562	0.470472	0.007554
650	N	0.973269	0.488475	0.007763
651	C	0.990559	0.023771	0.007537
652	N	0.525861	0.041067	0.007757
653	C	0.543871	0.023784	0.007547
654	N	0.525863	0.488488	0.007772
655	C	0.743247	0.15025	0.006511
656	N	0.707948	0.132378	0.006254
657	C	0.690114	0.096957	0.00715
658	N	0.708124	0.079547	0.007933
659	C	0.743431	0.09718	0.008
660	N	0.760203	0.13219	0.007194
661	C	0.864145	0.096711	0.006365
662	N	0.881997	0.07927	0.006108
663	C	0.917418	0.096843	0.007119
664	N	0.934848	0.132264	0.008032
665	C	0.917242	0.149955	0.008068
666	N	0.882226	0.131729	0.007177
667	C	0.917696	0.271123	0.006433
668	N	0.935123	0.306421	0.00622
669	C	0.917528	0.324243	0.007177
670	N	0.882101	0.306222	0.007994
671	C	0.86443	0.270921	0.008028
672	N	0.882675	0.25416	0.00716
673	C	0.585902	0.044509	0.095822
674	C	0.600425	0.051881	0.049527
675	H	0.594804	0.029002	0.113738
676	H	0.55766	0.030424	0.096143
677	H	0.594872	0.068834	0.113981
678	N	0.635669	0.069496	0.045798
679	C	0.653402	0.078524	0.339384
680	C	0.633556	0.06882	0.299023
681	C	0.649302	0.076853	0.253448
682	H	0.665368	0.104836	0.249309
683	H	0.629498	0.067039	0.227082
684	H	0.66536	0.064959	0.249003
685	N	0.598311	0.05118	0.302687
686	C	0.580562	0.04213	0.009107
687	C	0.969867	0.045108	0.095807
688	C	0.962485	0.052243	0.049511
689	H	0.985388	0.069526	0.113707
690	H	0.983944	0.030949	0.096132
691	H	0.945545	0.02976	0.113981
692	N	0.944878	0.069871	0.045777
693	C	0.935834	0.078556	0.33936
694	C	0.94552	0.068396	0.299003
695	C	0.937488	0.076103	0.253426
696	H	0.909502	0.064182	0.24929
697	H	0.947296	0.066107	0.227062
698	H	0.94939	0.104056	0.248974
699	N	0.963158	0.050795	0.302671
700	C	0.972216	0.042113	0.009093
701	C	0.969272	0.428456	0.095836
702	C	0.962119	0.413927	0.049544
703	H	0.944857	0.419537	0.113758
704	H	0.983417	0.456693	0.096152
705	H	0.984641	0.419504	0.113995
706	N	0.944503	0.378687	0.045821
707	C	0.9358	0.360951	0.339411
708	C	0.945932	0.380793	0.299046
709	C	0.938213	0.365044	0.253472
710	H	0.950145	0.348997	0.249328
711	H	0.948193	0.384847	0.227104
712	H	0.910256	0.348973	0.249037
713	N	0.963524	0.416035	0.302704
714	C	0.97222	0.433784	0.009121
715	C	0.824588	0.085575	0.251776
716	C	0.810549	0.082147	0.298023
717	H	0.805265	0.064995	0.230456
718	H	0.848044	0.083673	0.251099
719	H	0.830565	0.110553	0.237573
720	N	0.78089	0.083605	0.302245
721	C	0.76508	0.082514	0.008684
722	C	0.78216	0.081933	0.04887
723	C	0.770664	0.08506	0.094694
724	H	0.771081	0.109633	0.098088
725	H	0.787476	0.083963	0.120709
726	H	0.74435	0.063843	0.100511
727	N	0.812975	0.082737	0.044619
728	C	0.827823	0.081786	0.338166
729	C	0.928635	0.24248	0.251915
730	C	0.93223	0.232042	0.298189
731	H	0.949147	0.243681	0.230512
732	H	0.930525	0.26783	0.251133
733	H	0.903608	0.223415	0.237884
734	N	0.930772	0.200936	0.302547
735	C	0.931974	0.186265	0.009007
736	C	0.932514	0.204002	0.049085
737	C	0.929394	0.189395	0.094909
738	H	0.904849	0.165198	0.098285
739	H	0.930428	0.207284	0.120908
740	H	0.950651	0.184371	0.100765
741	N	0.931706	0.234003	0.044771
742	C	0.93263	0.24974	0.338285
743	C	0.771605	0.189698	0.251936
744	C	0.782212	0.203783	0.298165
745	H	0.77038	0.209006	0.230557
746	H	0.746226	0.166259	0.251277
747	H	0.790593	0.18368	0.237788
748	N	0.813354	0.233427	0.302351
749	C	0.828107	0.24927	0.008767
750	C	0.810469	0.232229	0.04899
751	C	0.825126	0.243839	0.094778
752	H	0.849305	0.243464	0.098191
753	H	0.807243	0.227071	0.120848
754	H	0.830198	0.270151	0.100492
755	N	0.780428	0.201423	0.044837
756	C	0.76466	0.186583	0.338386
757	C	0.990562	0.470472	0.340885
758	N	0.973269	0.488475	0.341095
759	C	0.990559	0.023771	0.340872
760	N	0.525861	0.041067	0.341092
761	C	0.543871	0.023784	0.340879
762	N	0.525863	0.488488	0.341105
763	C	0.743247	0.15025	0.339844
764	N	0.707948	0.132378	0.33959
765	C	0.690114	0.096957	0.340486
766	N	0.708124	0.079547	0.341268
767	C	0.743431	0.09718	0.341332
768	N	0.760203	0.13219	0.340527
769	C	0.864145	0.096711	0.339698
770	N	0.881997	0.07927	0.339441
771	C	0.917418	0.096843	0.340452
772	N	0.934848	0.132264	0.341366
773	C	0.917242	0.149955	0.341403
774	N	0.882226	0.131729	0.34051
775	C	0.917696	0.271123	0.339766
776	N	0.935123	0.306421	0.339553
777	C	0.917528	0.324243	0.34051
778	N	0.882101	0.306222	0.341328
779	C	0.86443	0.270921	0.341362
780	N	0.882675	0.25416	0.340493
781	C	0.585902	0.044509	0.429155
782	C	0.600425	0.051881	0.382859
783	H	0.594804	0.029002	0.447072
784	H	0.55766	0.030424	0.429476
785	H	0.594872	0.068834	0.447316
786	N	0.635669	0.069496	0.379132
787	C	0.653402	0.078524	0.672717
788	C	0.633556	0.06882	0.632357
789	C	0.649302	0.076853	0.586781
790	H	0.665368	0.104836	0.582642
791	H	0.629498	0.067039	0.560416
792	H	0.66536	0.064959	0.582338
793	N	0.598311	0.05118	0.636019
794	C	0.580562	0.04213	0.342441
795	C	0.969867	0.045108	0.429141
796	C	0.962485	0.052243	0.382842
797	H	0.985388	0.069526	0.447042
798	H	0.983944	0.030949	0.429466
799	H	0.945545	0.02976	0.447312
800	N	0.944878	0.069871	0.379112
801	C	0.935834	0.078556	0.672694
802	C	0.94552	0.068396	0.632337
803	C	0.937488	0.076103	0.586758
804	H	0.909502	0.064182	0.582622
805	H	0.947296	0.066107	0.560395
806	H	0.94939	0.104056	0.582307
807	N	0.963158	0.050795	0.636006
808	C	0.972216	0.042113	0.342428
809	C	0.969272	0.428456	0.429168
810	C	0.962119	0.413927	0.382876
811	H	0.944857	0.419537	0.447089
812	H	0.983417	0.456693	0.429486
813	H	0.984641	0.419504	0.447329
814	N	0.944503	0.378687	0.379156
815	C	0.9358	0.360951	0.672741
816	C	0.945932	0.380793	0.63238
817	C	0.938213	0.365044	0.586805
818	H	0.950145	0.348997	0.582662
819	H	0.948193	0.384847	0.560436
820	H	0.910256	0.348973	0.582371
821	N	0.963524	0.416035	0.636036
822	C	0.97222	0.433784	0.342455
823	C	0.824588	0.085575	0.585111
824	C	0.810549	0.082147	0.631356
825	H	0.805265	0.064995	0.563787
826	H	0.848044	0.083673	0.584431
827	H	0.830565	0.110553	0.570906
828	N	0.78089	0.083605	0.63558
829	C	0.76508	0.082514	0.342018
830	C	0.78216	0.081933	0.382203
831	C	0.770664	0.08506	0.428028
832	H	0.771081	0.109633	0.431421
833	H	0.787476	0.083963	0.454043
834	H	0.74435	0.063843	0.433845
835	N	0.812975	0.082737	0.377952
836	C	0.827823	0.081786	0.6715
837	C	0.928635	0.24248	0.585249
838	C	0.93223	0.232042	0.631521
839	H	0.949147	0.243681	0.563845
840	H	0.930525	0.26783	0.584465
841	H	0.903608	0.223415	0.571218
842	N	0.930772	0.200936	0.635881
843	C	0.931974	0.186265	0.34234
844	C	0.932514	0.204002	0.382419
845	C	0.929394	0.189395	0.428242
846	H	0.904849	0.165198	0.43162
847	H	0.930428	0.207284	0.454242
848	H	0.950651	0.184371	0.434099
849	N	0.931706	0.234003	0.378104
850	C	0.93263	0.24974	0.671615
851	C	0.771605	0.189698	0.58527
852	C	0.782212	0.203783	0.631498
853	H	0.77038	0.209006	0.563889
854	H	0.746226	0.166259	0.58461
855	H	0.790593	0.18368	0.571123
856	N	0.813354	0.233427	0.635685
857	C	0.828107	0.24927	0.342099
858	C	0.810469	0.232229	0.382325
859	C	0.825126	0.243839	0.42811
860	H	0.849305	0.243464	0.431525
861	H	0.807243	0.227071	0.454181
862	H	0.830198	0.270151	0.433825
863	N	0.780428	0.201423	0.378172
864	C	0.76466	0.186583	0.67172
865	C	0.990562	0.470472	0.674219
866	N	0.973269	0.488475	0.674428
867	C	0.990559	0.023771	0.674202
868	N	0.525861	0.041067	0.674425
869	C	0.543871	0.023784	0.674212
870	N	0.525863	0.488488	0.674439
871	C	0.743247	0.15025	0.673177
872	N	0.707948	0.132378	0.672923
873	C	0.690114	0.096957	0.67382
874	N	0.708124	0.079547	0.674601
875	C	0.743431	0.09718	0.674665
876	N	0.760203	0.13219	0.67386
877	C	0.864145	0.096711	0.673032
878	N	0.881997	0.07927	0.672775
879	C	0.917418	0.096843	0.673786
880	N	0.934848	0.132264	0.674699
881	C	0.917242	0.149955	0.674736
882	N	0.882226	0.131729	0.673843
883	C	0.917696	0.271123	0.673099
884	N	0.935123	0.306421	0.672886
885	C	0.917528	0.324243	0.673843
886	N	0.882101	0.306222	0.674662
887	C	0.86443	0.270921	0.674696
888	N	0.882675	0.25416	0.673826
889	C	0.585902	0.044509	0.762488
890	C	0.600425	0.051881	0.716192
891	H	0.594804	0.029002	0.780406
892	H	0.55766	0.030424	0.762809
893	H	0.594872	0.068834	0.780649
894	N	0.635669	0.069496	0.712465
895	C	0.653402	0.078524	0.006051
896	C	0.633556	0.06882	0.96569
897	C	0.649302	0.076853	0.920115
898	H	0.665368	0.104836	0.915975
899	H	0.629498	0.067039	0.893749
900	H	0.66536	0.064959	0.915671
901	N	0.598311	0.05118	0.969353
902	C	0.580562	0.04213	0.675774
903	C	0.969867	0.045108	0.762475
904	C	0.962485	0.052243	0.716175
905	H	0.985388	0.069526	0.780375
906	H	0.983944	0.030949	0.762799
907	H	0.945545	0.02976	0.780646
908	N	0.944878	0.069871	0.712442
909	C	0.935834	0.078556	0.006027
910	C	0.94552	0.068396	0.96567
911	C	0.937488	0.076103	0.920091
912	H	0.909502	0.064182	0.915955
913	H	0.947296	0.066107	0.893729
914	H	0.94939	0.104056	0.91564
915	N	0.963158	0.050795	0.969339
916	C	0.972216	0.042113	0.675761
917	C	0.969272	0.428456	0.762502
918	C	0.962119	0.413927	0.716209
919	H	0.944857	0.419537	0.780423
920	H	0.983417	0.456693	0.76282
921	H	0.984641	0.419504	0.780659
922	N	0.944503	0.378687	0.712486
923	C	0.9358	0.360951	0.006074
924	C	0.945932	0.380793	0.965714
925	C	0.938213	0.365044	0.920139
926	H	0.950145	0.348997	0.915996
927	H	0.948193	0.384847	0.893769
928	H	0.910256	0.348973	0.915705
929	N	0.963524	0.416035	0.96937
930	C	0.97222	0.433784	0.675788
931	C	0.824588	0.085575	0.918441
932	C	0.810549	0.082147	0.964689
933	H	0.805265	0.064995	0.897121
934	H	0.848044	0.083673	0.917764
935	H	0.830565	0.110553	0.90424
936	N	0.78089	0.083605	0.968913
937	C	0.76508	0.082514	0.675352
938	C	0.78216	0.081933	0.715536
939	C	0.770664	0.08506	0.761362
940	H	0.771081	0.109633	0.764754
941	H	0.787476	0.083963	0.787376
942	H	0.74435	0.063843	0.767179
943	N	0.812975	0.082737	0.711285
944	C	0.827823	0.081786	0.004833
945	C	0.928635	0.24248	0.918583
946	C	0.93223	0.232042	0.964855
947	H	0.949147	0.243681	0.897178
948	H	0.930525	0.26783	0.917798
949	H	0.903608	0.223415	0.904551
950	N	0.930772	0.200936	0.969214
951	C	0.931974	0.186265	0.675673
952	C	0.932514	0.204002	0.715753
953	C	0.929394	0.189395	0.761575
954	H	0.904849	0.165198	0.764954
955	H	0.930428	0.207284	0.787576
956	H	0.950651	0.184371	0.767433
957	N	0.931706	0.234003	0.711437
958	C	0.93263	0.24974	0.004948
959	C	0.771605	0.189698	0.918603
960	C	0.782212	0.203783	0.964831
961	H	0.77038	0.209006	0.897222
962	H	0.746226	0.166259	0.917944
963	H	0.790593	0.18368	0.904456
964	N	0.813354	0.233427	0.969018
965	C	0.828107	0.24927	0.675433
966	C	0.810469	0.232229	0.715658
967	C	0.825126	0.243839	0.761443
968	H	0.849305	0.243464	0.764859
969	H	0.807243	0.227071	0.787515
970	H	0.830198	0.270151	0.767159
971	N	0.780428	0.201423	0.711505
972	C	0.76466	0.186583	0.005053
973	C	0.990563	0.970473	0.007554
974	N	0.973268	0.988474	0.007763
975	C	0.990558	0.523771	0.007537
976	N	0.525861	0.541067	0.007757
977	C	0.543871	0.523784	0.007547
978	N	0.525863	0.988487	0.007772
979	C	0.743247	0.65025	0.006511
980	N	0.707946	0.632377	0.006254
981	C	0.690114	0.596956	0.00715
982	N	0.708123	0.579546	0.007933
983	C	0.743431	0.597182	0.008
984	N	0.760203	0.63219	0.007194
985	C	0.864146	0.596713	0.006365
986	N	0.881997	0.579269	0.006108
987	C	0.917417	0.596842	0.007119
988	N	0.934849	0.632265	0.008032
989	C	0.917242	0.649955	0.008068
990	N	0.882226	0.631729	0.007177
991	C	0.917696	0.771124	0.006433
992	N	0.935123	0.806421	0.00622
993	C	0.917528	0.824242	0.007177
994	N	0.882102	0.806224	0.007994
995	C	0.86443	0.77092	0.008028
996	N	0.882675	0.75416	0.00716
997	C	0.585902	0.544509	0.095822
998	C	0.600425	0.551881	0.049527
999	H	0.594805	0.529003	0.113738
1000	H	0.55766	0.530425	0.096143
1001	H	0.594872	0.568833	0.113981
1002	N	0.635669	0.569496	0.045798
1003	C	0.653402	0.578523	0.339384
1004	C	0.633556	0.56882	0.299023
1005	C	0.649302	0.576852	0.253448
1006	H	0.665368	0.604836	0.249309
1007	H	0.629497	0.567038	0.227082
1008	H	0.66536	0.56496	0.249003
1009	N	0.598311	0.551179	0.302687
1010	C	0.580562	0.542131	0.009107
1011	C	0.969867	0.545108	0.095807
1012	C	0.962485	0.552244	0.049511
1013	H	0.985389	0.569527	0.113707
1014	H	0.983944	0.530949	0.096132
1015	H	0.945545	0.52976	0.113981
1016	N	0.944878	0.569871	0.045777
1017	C	0.935833	0.578554	0.33936
1018	C	0.945521	0.568398	0.299003
1019	C	0.937488	0.576104	0.253426
1020	H	0.909503	0.564183	0.24929
1021	H	0.947296	0.566108	0.227062
1022	H	0.94939	0.604056	0.248974
1023	N	0.963158	0.550796	0.302671
1024	C	0.972217	0.542113	0.009093
1025	C	0.969272	0.928455	0.095836
1026	C	0.962119	0.913926	0.049544
1027	H	0.944856	0.919536	0.113758
1028	H	0.983416	0.956692	0.096152
1029	H	0.98464	0.919503	0.113995
1030	N	0.944503	0.878686	0.045821
1031	C	0.9358	0.86095	0.339411
1032	C	0.945929	0.880792	0.299046
1033	C	0.938214	0.865046	0.253472
1034	H	0.950146	0.848998	0.249328
1035	H	0.948192	0.884846	0.227104
1036	H	0.910255	0.848972	0.249037
1037	N	0.963523	0.916034	0.302704
1038	C	0.97222	0.933783	0.009121
1039	C	0.824588	0.585574	0.251776
1040	C	0.810549	0.582147	0.298023
1041	H	0.805265	0.564996	0.230456
1042	H	0.848044	0.583673	0.251099
1043	H	0.830565	0.610553	0.237573
1044	N	0.78089	0.583606	0.302245
1045	C	0.765081	0.582515	0.008684
1046	C	0.78216	0.581932	0.04887
1047	C	0.770664	0.585061	0.094694
1048	H	0.771081	0.609633	0.098088
1049	H	0.787476	0.583963	0.120709
1050	H	0.74435	0.563844	0.100511
1051	N	0.812975	0.582738	0.044619
1052	C	0.827824	0.581787	0.338166
1053	C	0.928635	0.74248	0.251915
1054	C	0.932231	0.732044	0.298189
1055	H	0.949148	0.743682	0.230512
1056	H	0.930522	0.767829	0.251133
1057	H	0.903608	0.723415	0.237884
1058	N	0.930772	0.700936	0.302547
1059	C	0.931973	0.686267	0.009007
1060	C	0.932515	0.704003	0.049085
1061	C	0.929395	0.689396	0.094909
1062	H	0.90485	0.665199	0.098285
1063	H	0.930428	0.707285	0.120908
1064	H	0.950651	0.684371	0.100765
1065	N	0.931706	0.734004	0.044771
1066	C	0.93263	0.749741	0.338285
1067	C	0.771605	0.689699	0.251936
1068	C	0.782212	0.703783	0.298165
1069	H	0.770381	0.709007	0.230557
1070	H	0.746225	0.666259	0.251277
1071	H	0.790593	0.683681	0.237788
1072	N	0.813354	0.733427	0.302351
1073	C	0.828107	0.749269	0.008767
1074	C	0.810469	0.73223	0.04899
1075	C	0.825126	0.74384	0.094778
1076	H	0.849303	0.743464	0.098191
1077	H	0.807242	0.72707	0.120848
1078	H	0.830198	0.77015	0.100492
1079	N	0.780429	0.701423	0.044837
1080	C	0.76466	0.686583	0.338386
1081	C	0.990563	0.970473	0.340885
1082	N	0.973268	0.988474	0.341095
1083	C	0.990558	0.523771	0.340872
1084	N	0.525861	0.541067	0.341092
1085	C	0.543871	0.523784	0.340879
1086	N	0.525863	0.988487	0.341105
1087	C	0.743247	0.65025	0.339844
1088	N	0.707946	0.632377	0.33959
1089	C	0.690114	0.596956	0.340486
1090	N	0.708123	0.579546	0.341268
1091	C	0.743431	0.597182	0.341332
1092	N	0.760203	0.63219	0.340527
1093	C	0.864146	0.596713	0.339698
1094	N	0.881997	0.579269	0.339441
1095	C	0.917417	0.596842	0.340452
1096	N	0.934849	0.632265	0.341366
1097	C	0.917242	0.649955	0.341403
1098	N	0.882226	0.631729	0.34051
1099	C	0.917696	0.771124	0.339766
1100	N	0.935123	0.806421	0.339553
1101	C	0.917528	0.824242	0.34051
1102	N	0.882102	0.806224	0.341328
1103	C	0.86443	0.77092	0.341362
1104	N	0.882675	0.75416	0.340493
1105	C	0.585902	0.544509	0.429155
1106	C	0.600425	0.551881	0.382859
1107	H	0.594805	0.529003	0.447072
1108	H	0.55766	0.530425	0.429476
1109	H	0.594872	0.568833	0.447316
1110	N	0.635669	0.569496	0.379132
1111	C	0.653402	0.578523	0.672717
1112	C	0.633556	0.56882	0.632357
1113	C	0.649302	0.576852	0.586781
1114	H	0.665368	0.604836	0.582642
1115	H	0.629497	0.567038	0.560416
1116	H	0.66536	0.56496	0.582338
1117	N	0.598311	0.551179	0.636019
1118	C	0.580562	0.542131	0.342441
1119	C	0.969867	0.545108	0.429141
1120	C	0.962485	0.552244	0.382842
1121	H	0.985389	0.569527	0.447042
1122	H	0.983944	0.530949	0.429466
1123	H	0.945545	0.52976	0.447312
1124	N	0.944878	0.569871	0.379112
1125	C	0.935833	0.578554	0.672694
1126	C	0.945521	0.568398	0.632337
1127	C	0.937488	0.576104	0.586758
1128	H	0.909503	0.564183	0.582622
1129	H	0.947296	0.566108	0.560395
1130	H	0.94939	0.604056	0.582307
1131	N	0.963158	0.550796	0.636006
1132	C	0.972217	0.542113	0.342428
1133	C	0.969272	0.928455	0.429168
1134	C	0.962119	0.913926	0.382876
1135	H	0.944856	0.919536	0.447089
1136	H	0.983416	0.956692	0.429486
1137	H	0.98464	0.919503	0.447329
1138	N	0.944503	0.878686	0.379156
1139	C	0.9358	0.86095	0.672744
1140	C	0.945929	0.880792	0.63238
1141	C	0.938214	0.865046	0.586805
1142	H	0.950146	0.848998	0.582662
1143	H	0.948192	0.884846	0.560436
1144	H	0.910255	0.848972	0.582371
1145	N	0.963523	0.916034	0.636036
1146	C	0.97222	0.933783	0.342455
1147	C	0.824588	0.585574	0.585111
1148	C	0.810549	0.582147	0.631356
1149	H	0.805265	0.564996	0.563787
1150	H	0.848044	0.583673	0.584431
1151	H	0.830565	0.610553	0.570906
1152	N	0.78089	0.583606	0.63558
1153	C	0.765081	0.582515	0.342018
1154	C	0.78216	0.581932	0.382203
1155	C	0.770664	0.585061	0.428028
1156	H	0.771081	0.609633	0.431421
1157	H	0.787476	0.583963	0.454043
1158	H	0.74435	0.563844	0.433845
1159	N	0.812975	0.582738	0.377952
1160	C	0.827824	0.581787	0.6715
1161	C	0.928635	0.74248	0.585249
1162	C	0.932231	0.732044	0.631521
1163	H	0.949148	0.743682	0.563845
1164	H	0.930522	0.767829	0.584465
1165	H	0.903608	0.723415	0.571218
1166	N	0.930772	0.700936	0.635881
1167	C	0.931973	0.686267	0.34234
1168	C	0.932515	0.704003	0.382419
1169	C	0.929395	0.689396	0.428242
1170	H	0.90485	0.665199	0.43162
1171	H	0.930428	0.707285	0.454242
1172	H	0.950651	0.684371	0.434099
1173	N	0.931706	0.734004	0.378104
1174	C	0.93263	0.749741	0.671615
1175	C	0.771605	0.689699	0.58527
1176	C	0.782212	0.703783	0.631498
1177	H	0.770381	0.709007	0.563889
1178	H	0.746225	0.666259	0.58461
1179	H	0.790593	0.683681	0.571123
1180	N	0.813354	0.733427	0.635685
1181	C	0.828107	0.749269	0.342099
1182	C	0.810469	0.73223	0.382325
1183	C	0.825126	0.74384	0.42811
1184	H	0.849303	0.743464	0.431525
1185	H	0.807242	0.72707	0.454181
1186	H	0.830198	0.77015	0.433825
1187	N	0.780429	0.701423	0.378172
1188	C	0.76466	0.686583	0.67172
1189	C	0.990563	0.970473	0.674219
1190	N	0.973268	0.988474	0.674428
1191	C	0.990558	0.523771	0.674202
1192	N	0.525861	0.541067	0.674425
1193	C	0.543871	0.523784	0.674212
1194	N	0.525863	0.988487	0.674439
1195	C	0.743247	0.65025	0.673177
1196	N	0.707946	0.632377	0.672923
1197	C	0.690114	0.596956	0.67382
1198	N	0.708123	0.579546	0.674601
1199	C	0.743431	0.597182	0.674665
1200	N	0.760203	0.63219	0.67386
1201	C	0.864146	0.596713	0.673032
1202	N	0.881997	0.579269	0.672775
1203	C	0.917417	0.596842	0.673786
1204	N	0.934849	0.632265	0.674699
1205	C	0.917242	0.649955	0.674736
1206	N	0.882226	0.631729	0.673843
1207	C	0.917696	0.771124	0.673099
1208	N	0.935123	0.806421	0.672886
1209	C	0.917528	0.824242	0.673843
1210	N	0.882102	0.806224	0.674662
1211	C	0.86443	0.77092	0.674696
1212	N	0.882675	0.75416	0.673826
1213	C	0.585902	0.544509	0.762488
1214	C	0.600425	0.551881	0.716192
1215	H	0.594805	0.529003	0.780406
1216	H	0.55766	0.530425	0.762809
1217	H	0.594872	0.568833	0.780649
1218	N	0.635669	0.569496	0.712465
1219	C	0.653402	0.578523	0.006051
1220	C	0.633556	0.56882	0.96569
1221	C	0.649302	0.576852	0.920115
1222	H	0.665368	0.604836	0.915975
1223	H	0.629497	0.567038	0.893749
1224	H	0.66536	0.56496	0.915671
1225	N	0.598311	0.551179	0.969353
1226	C	0.580562	0.542131	0.675774
1227	C	0.969867	0.545108	0.762475
1228	C	0.962485	0.552244	0.716175
1229	H	0.985389	0.569527	0.780375
1230	H	0.983944	0.530949	0.762799
1231	H	0.945545	0.52976	0.780646
1232	N	0.944878	0.569871	0.712442
1233	C	0.935833	0.578554	0.006027
1234	C	0.945521	0.568398	0.96567
1235	C	0.937488	0.576104	0.920091
1236	H	0.909503	0.564183	0.915955
1237	H	0.947296	0.566108	0.893729
1238	H	0.94939	0.604056	0.91564
1239	N	0.963158	0.550796	0.969339
1240	C	0.972217	0.542113	0.675761
1241	C	0.969272	0.928455	0.762502
1242	C	0.962119	0.913926	0.716209
1243	H	0.944856	0.919536	0.780423
1244	H	0.983416	0.956692	0.76282
1245	H	0.98464	0.919503	0.780659
1246	N	0.944503	0.878686	0.712486
1247	C	0.9358	0.86095	0.006074
1248	C	0.945929	0.880792	0.965714
1249	C	0.938214	0.865046	0.920139
1250	H	0.950146	0.848998	0.915996
1251	H	0.948192	0.884846	0.893769
1252	H	0.910255	0.848972	0.915705
1253	N	0.963523	0.916034	0.96937
1254	C	0.97222	0.933783	0.675788
1255	C	0.824588	0.585574	0.918441
1256	C	0.810549	0.582147	0.964689
1257	H	0.805265	0.564996	0.897121
1258	H	0.848044	0.583673	0.917764
1259	H	0.830565	0.610553	0.90424
1260	N	0.78089	0.583606	0.968913
1261	C	0.765081	0.582515	0.675352
1262	C	0.78216	0.581932	0.715536
1263	C	0.770664	0.585061	0.761362
1264	H	0.771081	0.609633	0.764754
1265	H	0.787476	0.583963	0.787376
1266	H	0.74435	0.563844	0.767179
1267	N	0.812975	0.582738	0.711285
1268	C	0.827824	0.581787	0.004833
1269	C	0.928635	0.74248	0.918583
1270	C	0.932231	0.732044	0.964855
1271	H	0.949148	0.743682	0.897178
1272	H	0.930522	0.767829	0.917798
1273	H	0.903608	0.723415	0.904551
1274	N	0.930772	0.700936	0.969214
1275	C	0.931973	0.686267	0.675673
1276	C	0.932515	0.704003	0.715753
1277	C	0.929395	0.689396	0.761575
1278	H	0.90485	0.665199	0.764954
1279	H	0.930428	0.707285	0.787576
1280	H	0.950651	0.684371	0.767433
1281	N	0.931706	0.734004	0.711437
1282	C	0.93263	0.749741	0.004948
1283	C	0.771605	0.689699	0.918603
1284	C	0.782212	0.703783	0.964831
1285	H	0.770381	0.709007	0.897222
1286	H	0.746225	0.666259	0.917944
1287	H	0.790593	0.683681	0.904456
1288	N	0.813354	0.733427	0.969018
1289	C	0.828107	0.749269	0.675433
1290	C	0.810469	0.73223	0.715658
1291	C	0.825126	0.74384	0.761443
1292	H	0.849303	0.743464	0.764859
1293	H	0.807242	0.72707	0.787515
1294	H	0.830198	0.77015	0.767159
1295	N	0.780429	0.701423	0.711505
1296	C	0.76466	0.686583	0.005053
