data_C432H216N360_2018-02-15_10:38:29
#******************************************
#
# CIF file created by Zeo++
# Zeo++ is an open source package to
# analyze microporous materials
#
#*******************************************

_cell_length_a		44.6452   
_cell_length_b		44.6497   
_cell_length_c		29.6376   
_cell_angle_alpha		90   
_cell_angle_beta		90   
_cell_angle_gamma		120.01   

_symmetry_space_group_name_H-M		'P1'
_symmetry_Int_Tables_number		1
_symmetry_cell_setting		Monoclinic

loop_
_symmetry_equiv_pos_as_xyz
'+x,+y,+z'

loop_
_atom_site_label
_atom_site_type_symbol
_atom_site_fract_x
_atom_site_fract_y
_atom_site_fract_z
1	N	0.020516	0.039439	0.003935
2	C	0.042016	0.025979	0.004104
3	N	0.02713	0.490897	0.003992
4	C	0.078657	0.047546	0.335747
5	C	0.095055	0.08279	0.323498
6	N	0.099808	0.034519	0.011071
7	H	0.080136	0.093439	0.315118
8	N	0.020516	0.039439	0.337267
9	C	0.042016	0.025979	0.337437
10	N	0.02713	0.490897	0.337325
11	C	0.078657	0.047546	0.66908
12	C	0.095055	0.08279	0.656832
13	N	0.099808	0.034519	0.344404
14	H	0.080136	0.093439	0.648451
15	N	0.020516	0.039439	0.670601
16	C	0.042016	0.025979	0.67077
17	N	0.02713	0.490897	0.670659
18	C	0.078657	0.047546	0.002413
19	C	0.095055	0.08279	0.990165
20	N	0.099808	0.034519	0.677738
21	H	0.080136	0.093439	0.981784
22	N	0.020516	0.539439	0.003935
23	C	0.042016	0.525979	0.004104
24	N	0.02713	0.990896	0.003989
25	C	0.078657	0.547547	0.335747
26	C	0.095054	0.582789	0.323499
27	N	0.099808	0.53452	0.011071
28	H	0.080136	0.59344	0.31512
29	N	0.020516	0.539439	0.337268
30	C	0.042016	0.525979	0.337437
31	N	0.02713	0.990896	0.337325
32	C	0.078657	0.547547	0.66908
33	C	0.095054	0.582789	0.656832
34	N	0.099808	0.53452	0.344404
35	H	0.080136	0.59344	0.648454
36	N	0.020516	0.539439	0.670601
37	C	0.042016	0.525979	0.67077
38	N	0.02713	0.990896	0.670659
39	C	0.078657	0.547547	0.002413
40	C	0.095054	0.582789	0.990165
41	N	0.099808	0.53452	0.677738
42	H	0.080136	0.59344	0.981784
43	H	0.023141	0.381886	0.293864
44	H	0.021539	0.43132	0.315107
45	H	0.023141	0.381886	0.627197
46	H	0.021539	0.43132	0.64844
47	H	0.023141	0.381886	0.960531
48	H	0.021539	0.43132	0.981774
49	H	0.023142	0.881888	0.293862
50	H	0.021537	0.931319	0.315106
51	H	0.023142	0.881888	0.627194
52	H	0.021537	0.931319	0.64844
53	H	0.023142	0.881888	0.960527
54	H	0.021537	0.931319	0.981771
55	C	0.188658	0.103572	0.99855
56	N	0.204701	0.084179	0.998246
57	C	0.131574	0.102991	0.319361
58	C	0.151661	0.087239	0.330918
59	N	0.133603	0.053116	0.009143
60	N	0.144738	0.135621	0.302655
61	H	0.129609	0.144474	0.293866
62	H	0.168417	0.148991	0.292467
63	C	0.188658	0.103572	0.331883
64	N	0.204701	0.084179	0.331579
65	C	0.131574	0.102991	0.652695
66	C	0.151661	0.087239	0.664251
67	N	0.133603	0.053116	0.342474
68	N	0.144738	0.135621	0.635987
69	H	0.129609	0.144474	0.6272
70	H	0.168417	0.148991	0.6258
71	C	0.188658	0.103572	0.665216
72	N	0.204701	0.084179	0.664913
73	C	0.131574	0.102991	0.986025
74	C	0.151661	0.087239	0.997585
75	N	0.133603	0.053116	0.675808
76	N	0.144738	0.135621	0.96932
77	H	0.129609	0.144474	0.960531
78	H	0.168417	0.148991	0.959134
79	C	0.188658	0.603574	0.99855
80	N	0.2047	0.584178	0.998246
81	C	0.131573	0.602992	0.319362
82	C	0.151661	0.587241	0.330919
83	N	0.133602	0.553116	0.009143
84	N	0.144738	0.635622	0.302657
85	H	0.129608	0.644475	0.293868
86	H	0.168416	0.648991	0.292469
87	C	0.188658	0.603574	0.331884
88	N	0.2047	0.584178	0.33158
89	C	0.131573	0.602992	0.652695
90	C	0.151661	0.587241	0.664251
91	N	0.133602	0.553116	0.342474
92	N	0.144738	0.635622	0.63599
93	H	0.129608	0.644475	0.6272
94	H	0.168416	0.648991	0.625804
95	C	0.188658	0.603574	0.665216
96	N	0.2047	0.584178	0.664913
97	C	0.131573	0.602992	0.986029
98	C	0.151661	0.587241	0.997585
99	N	0.133602	0.553116	0.675808
100	N	0.144738	0.635622	0.969324
101	H	0.129608	0.644475	0.960534
102	H	0.168416	0.648991	0.959134
103	C	0.244336	0.154475	0.999218
104	N	0.209282	0.138767	0.99969
105	C	0.239847	0.099269	0.99798
106	N	0.258825	0.134217	0.998014
107	C	0.269165	0.071492	0.036581
108	C	0.259271	0.082194	0.996779
109	N	0.251176	0.064919	0.075806
110	H	0.258433	0.057935	0.102877
111	H	0.229742	0.065531	0.077525
112	C	0.267329	0.190394	0.996981
113	H	0.264689	0.201506	0.065615
114	C	0.244336	0.154475	0.33255
115	N	0.209282	0.138767	0.333023
116	C	0.239847	0.099269	0.331315
117	N	0.258825	0.134217	0.331346
118	C	0.269165	0.071492	0.369916
119	C	0.259271	0.082194	0.330112
120	N	0.251176	0.064919	0.409139
121	H	0.258433	0.057935	0.43621
122	H	0.229742	0.065531	0.410857
123	C	0.267329	0.190394	0.330314
124	H	0.264689	0.201506	0.39895
125	C	0.244336	0.154475	0.665884
126	N	0.209282	0.138767	0.666357
127	C	0.239847	0.099269	0.664646
128	N	0.258825	0.134217	0.66468
129	C	0.269165	0.071492	0.703246
130	C	0.259271	0.082194	0.663445
131	N	0.251176	0.064919	0.742473
132	H	0.258433	0.057935	0.769543
133	H	0.229742	0.065531	0.74419
134	C	0.267329	0.190394	0.663647
135	H	0.264689	0.201506	0.73228
136	C	0.244336	0.654476	0.999218
137	N	0.209281	0.638767	0.99969
138	C	0.239847	0.59927	0.99798
139	N	0.258825	0.634217	0.998014
140	C	0.269165	0.571492	0.036581
141	C	0.259271	0.582195	0.996779
142	N	0.251175	0.56492	0.075806
143	H	0.258433	0.557937	0.102877
144	H	0.229741	0.56553	0.077525
145	C	0.267329	0.690394	0.996981
146	H	0.264689	0.701507	0.065616
147	C	0.244336	0.654476	0.332551
148	N	0.209281	0.638767	0.333024
149	C	0.239847	0.59927	0.331315
150	N	0.258825	0.634217	0.331346
151	C	0.269165	0.571492	0.369916
152	C	0.259271	0.582195	0.330112
153	N	0.251175	0.56492	0.409139
154	H	0.258433	0.557937	0.43621
155	H	0.229741	0.56553	0.410857
156	C	0.267329	0.690394	0.330314
157	H	0.264689	0.701507	0.39895
158	C	0.244336	0.654476	0.665884
159	N	0.209281	0.638767	0.666357
160	C	0.239847	0.59927	0.664646
161	N	0.258825	0.634217	0.66468
162	C	0.269165	0.571492	0.703246
163	C	0.259271	0.582195	0.663445
164	N	0.251175	0.56492	0.742473
165	H	0.258433	0.557937	0.769543
166	H	0.229741	0.56553	0.74419
167	C	0.267329	0.690394	0.663647
168	H	0.264689	0.701507	0.732283
169	C	0.492161	0.469394	0.00406
170	N	0.471956	0.484269	0.003884
171	C	0.485431	0.019231	0.003996
172	C	0.356874	0.092896	0.998655
173	N	0.372612	0.073583	0.999228
174	C	0.407819	0.08821	0.998273
175	N	0.427193	0.123651	0.998182
176	C	0.412066	0.143664	0.997922
177	N	0.377117	0.127657	0.997717
178	C	0.418482	0.267138	0.99912
179	N	0.437791	0.302189	0.999663
180	C	0.423179	0.322772	0.998591
181	N	0.387732	0.306689	0.998375
182	C	0.367715	0.27154	0.998152
183	N	0.383719	0.252603	0.998074
184	C	0.463872	0.034298	0.335551
185	C	0.42872	0.015515	0.322839
186	C	0.408539	0.031843	0.318644
187	C	0.42419	0.067593	0.33064
188	N	0.458232	0.083605	0.00928
189	N	0.476826	0.068414	0.011248
190	N	0.376058	0.012515	0.301413
191	H	0.367282	0.988607	0.292311
192	H	0.362793	0.022917	0.291163
193	H	0.418148	0.990012	0.314141
194	C	0.477098	0.43276	0.335721
195	C	0.495967	0.416386	0.323493
196	C	0.479674	0.379871	0.319394
197	C	0.443826	0.359767	0.330942
198	N	0.427735	0.377802	0.009135
199	N	0.442915	0.411593	0.011041
200	N	0.499158	0.36674	0.302657
201	H	0.523141	0.381886	0.293864
202	H	0.488863	0.34307	0.292454
203	H	0.521538	0.43132	0.315107
204	C	0.32094	0.079925	0.996472
205	C	0.300214	0.069996	0.03565
206	N	0.280966	0.091291	0.294082
207	N	0.309681	0.090337	0.293841
208	H	0.309598	0.065489	0.064837
209	C	0.43149	0.244225	0.997008
210	C	0.441074	0.233116	0.036196
211	C	0.439601	0.200585	0.036936
212	C	0.429072	0.180149	0.996974
213	N	0.420241	0.193002	0.294307
214	N	0.42126	0.222699	0.294221
215	N	0.445965	0.188983	0.076151
216	H	0.453001	0.203184	0.103259
217	H	0.445545	0.167025	0.077675
218	H	0.445513	0.24688	0.065487
219	C	0.27842	0.210938	0.036318
220	C	0.310918	0.242051	0.037111
221	C	0.331204	0.252004	0.997018
222	N	0.318394	0.23055	0.294161
223	N	0.28871	0.201829	0.294066
224	N	0.322561	0.259917	0.076393
225	H	0.308392	0.252653	0.10353
226	H	0.344483	0.281498	0.077929
227	C	0.492161	0.469394	0.337394
228	N	0.471956	0.484269	0.337218
229	C	0.485431	0.019231	0.337329
230	C	0.356874	0.092896	0.331988
231	N	0.372612	0.073583	0.332561
232	C	0.407819	0.08821	0.331608
233	N	0.427193	0.123651	0.331517
234	C	0.412066	0.143664	0.331257
235	N	0.377117	0.127657	0.331051
236	C	0.418482	0.267138	0.332454
237	N	0.437791	0.302189	0.332999
238	C	0.423179	0.322772	0.331923
239	N	0.387732	0.306689	0.331707
240	C	0.367715	0.27154	0.331487
241	N	0.383719	0.252603	0.331408
242	C	0.463872	0.034298	0.668884
243	C	0.42872	0.015515	0.65617
244	C	0.408539	0.031843	0.651976
245	C	0.42419	0.067593	0.663971
246	N	0.458232	0.083605	0.342612
247	N	0.476826	0.068414	0.344583
248	N	0.376058	0.012515	0.634745
249	H	0.367282	0.988607	0.625645
250	H	0.362793	0.022917	0.624494
251	H	0.418148	0.990012	0.647475
252	C	0.477098	0.43276	0.669053
253	C	0.495967	0.416386	0.656825
254	C	0.479674	0.379871	0.652725
255	C	0.443826	0.359767	0.664275
256	N	0.427735	0.377802	0.342467
257	N	0.442915	0.411593	0.344374
258	N	0.499158	0.36674	0.63599
259	H	0.523141	0.381886	0.627197
260	H	0.488863	0.34307	0.625787
261	H	0.521538	0.43132	0.64844
262	C	0.32094	0.079925	0.329806
263	C	0.300214	0.069996	0.368984
264	N	0.280966	0.091291	0.627416
265	N	0.309681	0.090337	0.627173
266	H	0.309598	0.065489	0.39817
267	C	0.43149	0.244225	0.330344
268	C	0.441074	0.233116	0.369528
269	C	0.439601	0.200585	0.37027
270	C	0.429072	0.180149	0.330308
271	N	0.420241	0.193002	0.627639
272	N	0.42126	0.222699	0.627555
273	N	0.445965	0.188983	0.409484
274	H	0.453001	0.203184	0.436591
275	H	0.445545	0.167025	0.411009
276	H	0.445513	0.24688	0.398818
277	C	0.27842	0.210938	0.369649
278	C	0.310918	0.242051	0.370445
279	C	0.331204	0.252004	0.330352
280	N	0.318394	0.23055	0.627494
281	N	0.28871	0.201829	0.6274
282	N	0.322561	0.259917	0.409727
283	H	0.308392	0.252653	0.436864
284	H	0.344483	0.281498	0.411262
285	C	0.492161	0.469394	0.670726
286	N	0.471956	0.484269	0.670551
287	C	0.485431	0.019231	0.670662
288	C	0.356874	0.092896	0.665321
289	N	0.372612	0.073583	0.665895
290	C	0.407819	0.08821	0.66494
291	N	0.427193	0.123651	0.664852
292	C	0.412066	0.143664	0.664589
293	N	0.377117	0.127657	0.664383
294	C	0.418482	0.267138	0.665787
295	N	0.437791	0.302189	0.666333
296	C	0.423179	0.322772	0.665257
297	N	0.387732	0.306689	0.665041
298	C	0.367715	0.27154	0.664818
299	N	0.383719	0.252603	0.664741
300	C	0.463872	0.034298	0.002218
301	C	0.42872	0.015515	0.989504
302	C	0.408539	0.031843	0.98531
303	C	0.42419	0.067593	0.997305
304	N	0.458232	0.083605	0.675946
305	N	0.476826	0.068414	0.677913
306	N	0.376058	0.012515	0.968079
307	H	0.367282	0.988607	0.958979
308	H	0.362793	0.022917	0.957828
309	H	0.418148	0.990012	0.980809
310	C	0.477098	0.43276	0.002386
311	C	0.495967	0.416386	0.990159
312	C	0.479674	0.379871	0.986059
313	C	0.443826	0.359767	0.997609
314	N	0.427735	0.377802	0.675801
315	N	0.442915	0.411593	0.677707
316	N	0.499158	0.36674	0.969324
317	H	0.523141	0.381886	0.960531
318	H	0.488863	0.34307	0.95912
319	H	0.521538	0.43132	0.981774
320	C	0.32094	0.079925	0.663138
321	C	0.300214	0.069996	0.702315
322	N	0.280966	0.091291	0.96075
323	N	0.309681	0.090337	0.960507
324	H	0.309598	0.065489	0.731504
325	C	0.43149	0.244225	0.663678
326	C	0.441074	0.233116	0.702861
327	C	0.439601	0.200585	0.7036
328	C	0.429072	0.180149	0.663641
329	N	0.420241	0.193002	0.960973
330	N	0.42126	0.222699	0.960888
331	N	0.445965	0.188983	0.742817
332	H	0.453001	0.203184	0.769925
333	H	0.445545	0.167025	0.744342
334	H	0.445513	0.24688	0.732152
335	C	0.27842	0.210938	0.702983
336	C	0.310918	0.242051	0.703776
337	C	0.331204	0.252004	0.663685
338	N	0.318394	0.23055	0.960828
339	N	0.28871	0.201829	0.960733
340	N	0.322561	0.259917	0.74306
341	H	0.308392	0.252653	0.770195
342	H	0.344483	0.281498	0.744595
343	C	0.492163	0.969396	0.00406
344	N	0.471958	0.98427	0.003884
345	C	0.485429	0.519231	0.003996
346	C	0.356874	0.592897	0.998655
347	N	0.372612	0.573584	0.999225
348	C	0.407819	0.58821	0.998273
349	N	0.427193	0.623652	0.998182
350	C	0.412066	0.643665	0.997922
351	N	0.377118	0.627658	0.997717
352	C	0.41848	0.767137	0.99912
353	N	0.43779	0.802188	0.999663
354	C	0.42318	0.822773	0.998591
355	N	0.387732	0.806688	0.998375
356	C	0.367714	0.771539	0.998152
357	N	0.383719	0.752604	0.998074
358	C	0.463871	0.5343	0.335551
359	C	0.428718	0.515515	0.32284
360	C	0.408538	0.531843	0.318645
361	C	0.424191	0.567594	0.33064
362	N	0.458231	0.583607	0.009279
363	N	0.476825	0.568414	0.011248
364	N	0.376057	0.512515	0.301414
365	H	0.367282	0.488608	0.292312
366	H	0.362791	0.522917	0.291164
367	H	0.418148	0.490013	0.314142
368	C	0.477099	0.932762	0.33572
369	C	0.495968	0.916388	0.323493
370	C	0.479674	0.879873	0.319393
371	C	0.443826	0.859769	0.330942
372	N	0.427735	0.877804	0.009135
373	N	0.442915	0.911592	0.011041
374	N	0.499158	0.866742	0.302656
375	H	0.523142	0.881888	0.293862
376	H	0.488863	0.843071	0.292453
377	H	0.521538	0.931319	0.315106
378	C	0.320941	0.579926	0.996472
379	C	0.300214	0.569997	0.035649
380	N	0.280964	0.591291	0.294082
381	N	0.309682	0.590339	0.293841
382	H	0.309598	0.565489	0.064836
383	C	0.431491	0.744227	0.997008
384	C	0.441073	0.733116	0.036195
385	C	0.439601	0.700584	0.036935
386	C	0.429072	0.680149	0.996974
387	N	0.420241	0.693003	0.294306
388	N	0.42126	0.7227	0.29422
389	N	0.445966	0.688984	0.07615
390	H	0.452999	0.703183	0.103258
391	H	0.445544	0.667026	0.077674
392	H	0.445514	0.746881	0.065486
393	C	0.278421	0.71094	0.036318
394	C	0.310918	0.742052	0.037111
395	C	0.331203	0.752004	0.997018
396	N	0.318394	0.73055	0.294161
397	N	0.28871	0.701831	0.294066
398	N	0.322561	0.759916	0.076394
399	H	0.308392	0.752653	0.10353
400	H	0.344482	0.781497	0.07793
401	C	0.492163	0.969396	0.337394
402	N	0.471958	0.98427	0.337217
403	C	0.485429	0.519231	0.337329
404	C	0.356874	0.592897	0.331988
405	N	0.372612	0.573584	0.33256
406	C	0.407819	0.58821	0.331608
407	N	0.427193	0.623652	0.331517
408	C	0.412066	0.643665	0.331256
409	N	0.377118	0.627658	0.331051
410	C	0.41848	0.767137	0.332454
411	N	0.43779	0.802188	0.332999
412	C	0.42318	0.822773	0.331923
413	N	0.387732	0.806688	0.331707
414	C	0.367714	0.771539	0.331487
415	N	0.383719	0.752604	0.331408
416	C	0.463871	0.5343	0.668884
417	C	0.428718	0.515515	0.656174
418	C	0.408538	0.531843	0.651976
419	C	0.424191	0.567594	0.663971
420	N	0.458231	0.583607	0.342612
421	N	0.476825	0.568414	0.344583
422	N	0.376057	0.512515	0.634748
423	H	0.367282	0.488608	0.625645
424	H	0.362791	0.522917	0.624498
425	H	0.418148	0.490013	0.647475
426	C	0.477099	0.932762	0.669053
427	C	0.495968	0.916388	0.656825
428	C	0.479674	0.879873	0.652725
429	C	0.443826	0.859769	0.664275
430	N	0.427735	0.877804	0.342467
431	N	0.442915	0.911592	0.344374
432	N	0.499158	0.866742	0.63599
433	H	0.523142	0.881888	0.627194
434	H	0.488863	0.843071	0.625787
435	H	0.521538	0.931319	0.64844
436	C	0.320941	0.579926	0.329806
437	C	0.300214	0.569997	0.368981
438	N	0.280964	0.591291	0.627416
439	N	0.309682	0.590339	0.627173
440	H	0.309598	0.565489	0.39817
441	C	0.431491	0.744227	0.330343
442	C	0.441073	0.733116	0.369528
443	C	0.439601	0.700584	0.370266
444	C	0.429072	0.680149	0.330307
445	N	0.420241	0.693003	0.627639
446	N	0.42126	0.7227	0.627555
447	N	0.445966	0.688984	0.409484
448	H	0.452999	0.703183	0.436591
449	H	0.445544	0.667026	0.411009
450	H	0.445514	0.746881	0.398818
451	C	0.278421	0.71094	0.369652
452	C	0.310918	0.742052	0.370445
453	C	0.331203	0.752004	0.330352
454	N	0.318394	0.73055	0.627494
455	N	0.28871	0.701831	0.6274
456	N	0.322561	0.759916	0.409727
457	H	0.308392	0.752653	0.436864
458	H	0.344482	0.781497	0.411262
459	C	0.492163	0.969396	0.670726
460	N	0.471958	0.98427	0.670551
461	C	0.485429	0.519231	0.670662
462	C	0.356874	0.592897	0.665321
463	N	0.372612	0.573584	0.665895
464	C	0.407819	0.58821	0.66494
465	N	0.427193	0.623652	0.664849
466	C	0.412066	0.643665	0.664589
467	N	0.377118	0.627658	0.664383
468	C	0.41848	0.767137	0.665787
469	N	0.43779	0.802188	0.666333
470	C	0.42318	0.822773	0.665257
471	N	0.387732	0.806688	0.665041
472	C	0.367714	0.771539	0.664818
473	N	0.383719	0.752604	0.664741
474	C	0.463871	0.5343	0.002218
475	C	0.428718	0.515515	0.989504
476	C	0.408538	0.531843	0.98531
477	C	0.424191	0.567594	0.997305
478	N	0.458231	0.583607	0.675946
479	N	0.476825	0.568414	0.677913
480	N	0.376057	0.512515	0.968079
481	H	0.367282	0.488608	0.958979
482	H	0.362791	0.522917	0.957828
483	H	0.418148	0.490013	0.980809
484	C	0.477099	0.932762	0.002386
485	C	0.495968	0.916388	0.990159
486	C	0.479674	0.879873	0.986059
487	C	0.443826	0.859769	0.997609
488	N	0.427735	0.877804	0.675801
489	N	0.442915	0.911592	0.677707
490	N	0.499158	0.866742	0.969324
491	H	0.523142	0.881888	0.960527
492	H	0.488863	0.843071	0.95912
493	H	0.521538	0.931319	0.981771
494	C	0.320941	0.579926	0.663138
495	C	0.300214	0.569997	0.702315
496	N	0.280964	0.591291	0.96075
497	N	0.309682	0.590339	0.960507
498	H	0.309598	0.565489	0.731504
499	C	0.431491	0.744227	0.663678
500	C	0.441073	0.733116	0.702861
501	C	0.439601	0.700584	0.7036
502	C	0.429072	0.680149	0.663641
503	N	0.420241	0.693003	0.960973
504	N	0.42126	0.7227	0.960885
505	N	0.445966	0.688984	0.742817
506	H	0.452999	0.703183	0.769925
507	H	0.445544	0.667026	0.744339
508	H	0.445514	0.746881	0.732152
509	C	0.278421	0.71094	0.702983
510	C	0.310918	0.742052	0.703779
511	C	0.331203	0.752004	0.663685
512	N	0.318394	0.73055	0.960828
513	N	0.28871	0.701831	0.960733
514	N	0.322561	0.759916	0.74306
515	H	0.308392	0.752653	0.770198
516	H	0.344482	0.781497	0.744595
517	C	0.992161	0.469394	0.00406
518	N	0.971956	0.484269	0.003884
519	C	0.985431	0.019231	0.003996
520	N	0.520516	0.039439	0.003935
521	C	0.542017	0.025979	0.004104
522	N	0.52713	0.490897	0.003992
523	C	0.744337	0.154475	0.999218
524	N	0.709283	0.138767	0.99969
525	C	0.688659	0.103572	0.99855
526	N	0.704702	0.084179	0.998246
527	C	0.739848	0.099269	0.99798
528	N	0.758825	0.134217	0.998014
529	C	0.856874	0.092896	0.998655
530	N	0.872612	0.073583	0.999228
531	C	0.907819	0.08821	0.998273
532	N	0.927193	0.123651	0.998182
533	C	0.912066	0.143664	0.997922
534	N	0.877117	0.127657	0.997717
535	C	0.918482	0.267138	0.99912
536	N	0.937791	0.302189	0.999663
537	C	0.923179	0.322772	0.998591
538	N	0.887734	0.306689	0.998375
539	C	0.867715	0.27154	0.998152
540	N	0.883719	0.252603	0.998074
541	C	0.578657	0.047546	0.335747
542	C	0.595054	0.08279	0.323498
543	C	0.631574	0.102991	0.319361
544	C	0.651662	0.087239	0.330918
545	N	0.633604	0.053116	0.009143
546	N	0.599809	0.034519	0.011071
547	N	0.644737	0.135621	0.302655
548	H	0.629609	0.144474	0.293866
549	H	0.668417	0.148991	0.292467
550	H	0.580137	0.093439	0.315118
551	C	0.963872	0.034298	0.335551
552	C	0.92872	0.015515	0.322839
553	C	0.908539	0.031843	0.318644
554	C	0.92419	0.067593	0.33064
555	N	0.958232	0.083605	0.00928
556	N	0.976826	0.068414	0.011248
557	N	0.876058	0.012515	0.301413
558	H	0.867282	0.988607	0.292311
559	H	0.862793	0.022917	0.291163
560	H	0.918147	0.990012	0.314141
561	C	0.977098	0.43276	0.335721
562	C	0.995967	0.416386	0.323493
563	C	0.979674	0.379871	0.319394
564	C	0.943826	0.359767	0.330942
565	N	0.927735	0.377802	0.009135
566	N	0.942915	0.411593	0.011041
567	N	0.999158	0.36674	0.302657
568	H	0.988863	0.34307	0.292454
569	C	0.82094	0.079925	0.996472
570	C	0.800214	0.069996	0.03565
571	C	0.769165	0.071492	0.036581
572	C	0.759271	0.082194	0.996779
573	N	0.780966	0.091291	0.294082
574	N	0.809681	0.090337	0.293841
575	N	0.751175	0.064919	0.075806
576	H	0.758433	0.057935	0.102877
577	H	0.729743	0.065531	0.077525
578	H	0.809598	0.065489	0.064837
579	C	0.93149	0.244225	0.997008
580	C	0.941074	0.233116	0.036196
581	C	0.939601	0.200585	0.036936
582	C	0.929072	0.180149	0.996974
583	N	0.920241	0.193002	0.294307
584	N	0.92126	0.222699	0.294221
585	N	0.945965	0.188983	0.076151
586	H	0.953001	0.203184	0.103259
587	H	0.945545	0.167025	0.077675
588	H	0.945513	0.24688	0.065487
589	C	0.76733	0.190394	0.996981
590	C	0.778422	0.210938	0.036318
591	C	0.810918	0.242051	0.037111
592	C	0.831204	0.252004	0.997018
593	N	0.818394	0.23055	0.294161
594	N	0.788711	0.201829	0.294066
595	N	0.822562	0.259917	0.076393
596	H	0.808392	0.252653	0.10353
597	H	0.844483	0.281498	0.077929
598	H	0.764688	0.201506	0.065615
599	C	0.992161	0.469394	0.337394
600	N	0.971956	0.484269	0.337218
601	C	0.985431	0.019231	0.337329
602	N	0.520516	0.039439	0.337267
603	C	0.542017	0.025979	0.337437
604	N	0.52713	0.490897	0.337325
605	C	0.744337	0.154475	0.33255
606	N	0.709283	0.138767	0.333023
607	C	0.688659	0.103572	0.331883
608	N	0.704702	0.084179	0.331579
609	C	0.739848	0.099269	0.331315
610	N	0.758825	0.134217	0.331346
611	C	0.856874	0.092896	0.331988
612	N	0.872612	0.073583	0.332561
613	C	0.907819	0.08821	0.331608
614	N	0.927193	0.123651	0.331517
615	C	0.912066	0.143664	0.331257
616	N	0.877117	0.127657	0.331051
617	C	0.918482	0.267138	0.332454
618	N	0.937791	0.302189	0.332999
619	C	0.923179	0.322772	0.331923
620	N	0.887734	0.306689	0.331707
621	C	0.867715	0.27154	0.331487
622	N	0.883719	0.252603	0.331408
623	C	0.578657	0.047546	0.66908
624	C	0.595054	0.08279	0.656832
625	C	0.631574	0.102991	0.652695
626	C	0.651662	0.087239	0.664251
627	N	0.633604	0.053116	0.342474
628	N	0.599809	0.034519	0.344404
629	N	0.644737	0.135621	0.635987
630	H	0.629609	0.144474	0.6272
631	H	0.668417	0.148991	0.6258
632	H	0.580137	0.093439	0.648451
633	C	0.963872	0.034298	0.668884
634	C	0.92872	0.015515	0.65617
635	C	0.908539	0.031843	0.651976
636	C	0.92419	0.067593	0.663971
637	N	0.958232	0.083605	0.342612
638	N	0.976826	0.068414	0.344583
639	N	0.876058	0.012515	0.634745
640	H	0.867282	0.988607	0.625645
641	H	0.862793	0.022917	0.624494
642	H	0.918147	0.990012	0.647475
643	C	0.977098	0.43276	0.669053
644	C	0.995967	0.416386	0.656825
645	C	0.979674	0.379871	0.652725
646	C	0.943826	0.359767	0.664275
647	N	0.927735	0.377802	0.342467
648	N	0.942915	0.411593	0.344374
649	N	0.999158	0.36674	0.63599
650	H	0.988863	0.34307	0.625787
651	C	0.82094	0.079925	0.329806
652	C	0.800214	0.069996	0.368984
653	C	0.769165	0.071492	0.369916
654	C	0.759271	0.082194	0.330112
655	N	0.780966	0.091291	0.627416
656	N	0.809681	0.090337	0.627173
657	N	0.751175	0.064919	0.409139
658	H	0.758433	0.057935	0.43621
659	H	0.729743	0.065531	0.410857
660	H	0.809598	0.065489	0.39817
661	C	0.93149	0.244225	0.330344
662	C	0.941074	0.233116	0.369528
663	C	0.939601	0.200585	0.37027
664	C	0.929072	0.180149	0.330308
665	N	0.920241	0.193002	0.627639
666	N	0.92126	0.222699	0.627555
667	N	0.945965	0.188983	0.409484
668	H	0.953001	0.203184	0.436591
669	H	0.945545	0.167025	0.411009
670	H	0.945513	0.24688	0.398818
671	C	0.76733	0.190394	0.330314
672	C	0.778422	0.210938	0.369649
673	C	0.810918	0.242051	0.370445
674	C	0.831204	0.252004	0.330352
675	N	0.818394	0.23055	0.627494
676	N	0.788711	0.201829	0.6274
677	N	0.822562	0.259917	0.409727
678	H	0.808392	0.252653	0.436864
679	H	0.844483	0.281498	0.411262
680	H	0.764688	0.201506	0.39895
681	C	0.992161	0.469394	0.670726
682	N	0.971956	0.484269	0.670551
683	C	0.985431	0.019231	0.670662
684	N	0.520516	0.039439	0.670601
685	C	0.542017	0.025979	0.67077
686	N	0.52713	0.490897	0.670659
687	C	0.744337	0.154475	0.665884
688	N	0.709283	0.138767	0.666357
689	C	0.688659	0.103572	0.665216
690	N	0.704702	0.084179	0.664913
691	C	0.739848	0.099269	0.664646
692	N	0.758825	0.134217	0.66468
693	C	0.856874	0.092896	0.665321
694	N	0.872612	0.073583	0.665895
695	C	0.907819	0.08821	0.66494
696	N	0.927193	0.123651	0.664852
697	C	0.912066	0.143664	0.664589
698	N	0.877117	0.127657	0.664383
699	C	0.918482	0.267138	0.665787
700	N	0.937791	0.302189	0.666333
701	C	0.923179	0.322772	0.665257
702	N	0.887734	0.306689	0.665041
703	C	0.867715	0.27154	0.664818
704	N	0.883719	0.252603	0.664741
705	C	0.578657	0.047546	0.002413
706	C	0.595054	0.08279	0.990165
707	C	0.631574	0.102991	0.986025
708	C	0.651662	0.087239	0.997585
709	N	0.633604	0.053116	0.675808
710	N	0.599809	0.034519	0.677738
711	N	0.644737	0.135621	0.96932
712	H	0.629609	0.144474	0.960531
713	H	0.668417	0.148991	0.959134
714	H	0.580137	0.093439	0.981784
715	C	0.963872	0.034298	0.002218
716	C	0.92872	0.015515	0.989504
717	C	0.908539	0.031843	0.98531
718	C	0.92419	0.067593	0.997305
719	N	0.958232	0.083605	0.675946
720	N	0.976826	0.068414	0.677913
721	N	0.876058	0.012515	0.968079
722	H	0.867282	0.988607	0.958979
723	H	0.862793	0.022917	0.957828
724	H	0.918147	0.990012	0.980809
725	C	0.977098	0.43276	0.002386
726	C	0.995967	0.416386	0.990159
727	C	0.979674	0.379871	0.986059
728	C	0.943826	0.359767	0.997609
729	N	0.927735	0.377802	0.675801
730	N	0.942915	0.411593	0.677707
731	N	0.999158	0.36674	0.969324
732	H	0.988863	0.34307	0.95912
733	C	0.82094	0.079925	0.663138
734	C	0.800214	0.069996	0.702315
735	C	0.769165	0.071492	0.703246
736	C	0.759271	0.082194	0.663445
737	N	0.780966	0.091291	0.96075
738	N	0.809681	0.090337	0.960507
739	N	0.751175	0.064919	0.742473
740	H	0.758433	0.057935	0.769543
741	H	0.729743	0.065531	0.74419
742	H	0.809598	0.065489	0.731504
743	C	0.93149	0.244225	0.663678
744	C	0.941074	0.233116	0.702861
745	C	0.939601	0.200585	0.7036
746	C	0.929072	0.180149	0.663641
747	N	0.920241	0.193002	0.960973
748	N	0.92126	0.222699	0.960888
749	N	0.945965	0.188983	0.742817
750	H	0.953001	0.203184	0.769925
751	H	0.945545	0.167025	0.744342
752	H	0.945513	0.24688	0.732152
753	C	0.76733	0.190394	0.663647
754	C	0.778422	0.210938	0.702983
755	C	0.810918	0.242051	0.703776
756	C	0.831204	0.252004	0.663685
757	N	0.818394	0.23055	0.960828
758	N	0.788711	0.201829	0.960733
759	N	0.822562	0.259917	0.74306
760	H	0.808392	0.252653	0.770195
761	H	0.844483	0.281498	0.744595
762	H	0.764688	0.201506	0.73228
763	C	0.992162	0.969396	0.00406
764	N	0.971957	0.98427	0.003884
765	C	0.985429	0.519231	0.003996
766	N	0.520516	0.539439	0.003935
767	C	0.542015	0.525979	0.004104
768	N	0.52713	0.990896	0.003989
769	C	0.744335	0.654476	0.999218
770	N	0.709281	0.638767	0.99969
771	C	0.688658	0.603574	0.99855
772	N	0.704699	0.584178	0.998246
773	C	0.739848	0.59927	0.99798
774	N	0.758825	0.634217	0.998014
775	C	0.856875	0.592897	0.998655
776	N	0.872612	0.573584	0.999225
777	C	0.907819	0.58821	0.998273
778	N	0.927194	0.623652	0.998182
779	C	0.912066	0.643665	0.997922
780	N	0.877118	0.627658	0.997717
781	C	0.918479	0.767137	0.99912
782	N	0.93779	0.802188	0.999663
783	C	0.92318	0.822773	0.998591
784	N	0.887731	0.806688	0.998375
785	C	0.867715	0.771539	0.998152
786	N	0.883718	0.752604	0.998074
787	C	0.578656	0.547547	0.335747
788	C	0.595054	0.582789	0.323499
789	C	0.631575	0.602992	0.319362
790	C	0.651661	0.587241	0.330919
791	N	0.633601	0.553116	0.009143
792	N	0.599809	0.53452	0.011071
793	N	0.644738	0.635622	0.302657
794	H	0.629608	0.644475	0.293868
795	H	0.668417	0.648991	0.292469
796	H	0.580136	0.59344	0.31512
797	C	0.96387	0.5343	0.335551
798	C	0.928717	0.515515	0.32284
799	C	0.908539	0.531843	0.318645
800	C	0.924191	0.567594	0.33064
801	N	0.95823	0.583607	0.009279
802	N	0.976824	0.568414	0.011248
803	N	0.876058	0.512515	0.301414
804	H	0.867283	0.488608	0.292312
805	H	0.862791	0.522917	0.291164
806	H	0.918147	0.490013	0.314142
807	C	0.977099	0.932762	0.33572
808	C	0.995968	0.916388	0.323493
809	C	0.979675	0.879873	0.319393
810	C	0.943826	0.859769	0.330942
811	N	0.927734	0.877804	0.009135
812	N	0.942915	0.911592	0.011041
813	N	0.999158	0.866742	0.302656
814	H	0.988862	0.843071	0.292453
815	C	0.820941	0.579926	0.996472
816	C	0.800215	0.569997	0.035649
817	C	0.769165	0.571492	0.036581
818	C	0.759272	0.582195	0.996779
819	N	0.780963	0.591291	0.294082
820	N	0.809682	0.590339	0.293841
821	N	0.751175	0.56492	0.075806
822	H	0.758434	0.557937	0.102877
823	H	0.72974	0.56553	0.077525
824	H	0.809598	0.565489	0.064836
825	C	0.93149	0.744227	0.997008
826	C	0.941072	0.733116	0.036195
827	C	0.939601	0.700584	0.036935
828	C	0.929072	0.680149	0.996974
829	N	0.920242	0.693003	0.294306
830	N	0.92126	0.7227	0.29422
831	N	0.945965	0.688984	0.07615
832	H	0.952999	0.703183	0.103258
833	H	0.945543	0.667026	0.077674
834	H	0.945513	0.746881	0.065486
835	C	0.76733	0.690394	0.996981
836	C	0.77842	0.71094	0.036318
837	C	0.810918	0.742052	0.037111
838	C	0.831204	0.752004	0.997018
839	N	0.818394	0.73055	0.294161
840	N	0.78871	0.701831	0.294066
841	N	0.822562	0.759916	0.076394
842	H	0.808393	0.752653	0.10353
843	H	0.844482	0.781497	0.07793
844	H	0.764689	0.701507	0.065616
845	C	0.992162	0.969396	0.337394
846	N	0.971957	0.98427	0.337217
847	C	0.985429	0.519231	0.337329
848	N	0.520516	0.539439	0.337268
849	C	0.542015	0.525979	0.337437
850	N	0.52713	0.990896	0.337325
851	C	0.744335	0.654476	0.332551
852	N	0.709281	0.638767	0.333024
853	C	0.688658	0.603574	0.331884
854	N	0.704699	0.584178	0.33158
855	C	0.739848	0.59927	0.331315
856	N	0.758825	0.634217	0.331346
857	C	0.856875	0.592897	0.331988
858	N	0.872612	0.573584	0.33256
859	C	0.907819	0.58821	0.331608
860	N	0.927194	0.623652	0.331517
861	C	0.912066	0.643665	0.331256
862	N	0.877118	0.627658	0.331051
863	C	0.918479	0.767137	0.332454
864	N	0.93779	0.802188	0.332999
865	C	0.92318	0.822773	0.331923
866	N	0.887731	0.806688	0.331707
867	C	0.867715	0.771539	0.331487
868	N	0.883718	0.752604	0.331408
869	C	0.578656	0.547547	0.66908
870	C	0.595054	0.582789	0.656832
871	C	0.631575	0.602992	0.652695
872	C	0.651661	0.587241	0.664251
873	N	0.633601	0.553116	0.342474
874	N	0.599809	0.53452	0.344404
875	N	0.644738	0.635622	0.63599
876	H	0.629608	0.644475	0.6272
877	H	0.668417	0.648991	0.625804
878	H	0.580136	0.59344	0.648454
879	C	0.96387	0.5343	0.668884
880	C	0.928717	0.515515	0.656174
881	C	0.908539	0.531843	0.651976
882	C	0.924191	0.567594	0.663971
883	N	0.95823	0.583607	0.342612
884	N	0.976824	0.568414	0.344583
885	N	0.876058	0.512515	0.634748
886	H	0.867283	0.488608	0.625645
887	H	0.862791	0.522917	0.624498
888	H	0.918147	0.490013	0.647475
889	C	0.977099	0.932762	0.669053
890	C	0.995968	0.916388	0.656825
891	C	0.979675	0.879873	0.652725
892	C	0.943826	0.859769	0.664275
893	N	0.927734	0.877804	0.342467
894	N	0.942915	0.911592	0.344374
895	N	0.999158	0.866742	0.63599
896	H	0.988862	0.843071	0.625787
897	C	0.820941	0.579926	0.329806
898	C	0.800215	0.569997	0.368981
899	C	0.769165	0.571492	0.369916
900	C	0.759272	0.582195	0.330112
901	N	0.780963	0.591291	0.627416
902	N	0.809682	0.590339	0.627173
903	N	0.751175	0.56492	0.409139
904	H	0.758434	0.557937	0.43621
905	H	0.72974	0.56553	0.410857
906	H	0.809598	0.565489	0.39817
907	C	0.93149	0.744227	0.330343
908	C	0.941072	0.733116	0.369528
909	C	0.939601	0.700584	0.370266
910	C	0.929072	0.680149	0.330307
911	N	0.920242	0.693003	0.627639
912	N	0.92126	0.7227	0.627555
913	N	0.945965	0.688984	0.409484
914	H	0.952999	0.703183	0.436591
915	H	0.945543	0.667026	0.411009
916	H	0.945513	0.746881	0.398818
917	C	0.76733	0.690394	0.330314
918	C	0.77842	0.71094	0.369652
919	C	0.810918	0.742052	0.370445
920	C	0.831204	0.752004	0.330352
921	N	0.818394	0.73055	0.627494
922	N	0.78871	0.701831	0.6274
923	N	0.822562	0.759916	0.409727
924	H	0.808393	0.752653	0.436864
925	H	0.844482	0.781497	0.411262
926	H	0.764689	0.701507	0.39895
927	C	0.992162	0.969396	0.670726
928	N	0.971957	0.98427	0.670551
929	C	0.985429	0.519231	0.670662
930	N	0.520516	0.539439	0.670601
931	C	0.542015	0.525979	0.67077
932	N	0.52713	0.990896	0.670659
933	C	0.744335	0.654476	0.665884
934	N	0.709281	0.638767	0.666357
935	C	0.688658	0.603574	0.665216
936	N	0.704699	0.584178	0.664913
937	C	0.739848	0.59927	0.664646
938	N	0.758825	0.634217	0.66468
939	C	0.856875	0.592897	0.665321
940	N	0.872612	0.573584	0.665895
941	C	0.907819	0.58821	0.66494
942	N	0.927194	0.623652	0.664849
943	C	0.912066	0.643665	0.664589
944	N	0.877118	0.627658	0.664383
945	C	0.918479	0.767137	0.665787
946	N	0.93779	0.802188	0.666333
947	C	0.92318	0.822773	0.665257
948	N	0.887731	0.806688	0.665041
949	C	0.867715	0.771539	0.664818
950	N	0.883718	0.752604	0.664741
951	C	0.578656	0.547547	0.002413
952	C	0.595054	0.582789	0.990165
953	C	0.631575	0.602992	0.986029
954	C	0.651661	0.587241	0.997585
955	N	0.633601	0.553116	0.675808
956	N	0.599809	0.53452	0.677738
957	N	0.644738	0.635622	0.969324
958	H	0.629608	0.644475	0.960534
959	H	0.668417	0.648991	0.959134
960	H	0.580136	0.59344	0.981784
961	C	0.96387	0.5343	0.002218
962	C	0.928717	0.515515	0.989504
963	C	0.908539	0.531843	0.98531
964	C	0.924191	0.567594	0.997305
965	N	0.95823	0.583607	0.675946
966	N	0.976824	0.568414	0.677913
967	N	0.876058	0.512515	0.968079
968	H	0.867283	0.488608	0.958979
969	H	0.862791	0.522917	0.957828
970	H	0.918147	0.490013	0.980809
971	C	0.977099	0.932762	0.002386
972	C	0.995968	0.916388	0.990159
973	C	0.979675	0.879873	0.986059
974	C	0.943826	0.859769	0.997609
975	N	0.927734	0.877804	0.675801
976	N	0.942915	0.911592	0.677707
977	N	0.999158	0.866742	0.969324
978	H	0.988862	0.843071	0.95912
979	C	0.820941	0.579926	0.663138
980	C	0.800215	0.569997	0.702315
981	C	0.769165	0.571492	0.703246
982	C	0.759272	0.582195	0.663445
983	N	0.780963	0.591291	0.96075
984	N	0.809682	0.590339	0.960507
985	N	0.751175	0.56492	0.742473
986	H	0.758434	0.557937	0.769543
987	H	0.72974	0.56553	0.74419
988	H	0.809598	0.565489	0.731504
989	C	0.93149	0.744227	0.663678
990	C	0.941072	0.733116	0.702861
991	C	0.939601	0.700584	0.7036
992	C	0.929072	0.680149	0.663641
993	N	0.920242	0.693003	0.960973
994	N	0.92126	0.7227	0.960885
995	N	0.945965	0.688984	0.742817
996	H	0.952999	0.703183	0.769925
997	H	0.945543	0.667026	0.744339
998	H	0.945513	0.746881	0.732152
999	C	0.76733	0.690394	0.663647
1000	C	0.77842	0.71094	0.702983
1001	C	0.810918	0.742052	0.703779
1002	C	0.831204	0.752004	0.663685
1003	N	0.818394	0.73055	0.960828
1004	N	0.78871	0.701831	0.960733
1005	N	0.822562	0.759916	0.74306
1006	H	0.808393	0.752653	0.770198
1007	H	0.844482	0.781497	0.744595
1008	H	0.764689	0.701507	0.732283
